<?xml version="1.0" ?>
<!-- Generated by MOSAIC scenario-convert 18.0 -->
<routes>
	<!-- <vType id="Car1A" length="7.5" maxSpeed="50" minGap="2.0" carFollowModel="Krauss" accel="0.80" decel="4.5" sigma="0.5" tau="1"/> -->
	<!-- <vType id="Car1B" length="7.5" maxSpeed="50" minGap="2.0" carFollowModel="Krauss" accel="0.80" decel="4.5" sigma="0.5" tau="1"/>  -->
	<!-- Rota Av. Presidente Vargas Cristo-SaidaGyn-->
	<!--<route id="1" edges="524186452_448777439_2988828174 524186452_2988828174_4690367398 524186452_4690367398_4690367173 524186451_4690367173_4690367126 38132318_4690367126_2995185012 38132318_2995185012_2995185005 38132318_2995185005_7746431765 38132318_7746431765_2995184996 38132318_2995184996_2995184991 38132318_2995184991_2995184986 38132318_2995184986_2995184984 38132318_2995184984_2995184976 38132318_2995184976_448777479 38132318_448777479_448777430 38132318_448777430_2995184951 38132318_2995184951_2995184941 38132318_2995184941_2995184936 38132318_2995184936_448777469 38132318_448777469_2995184820 38132318_2995184820_2995184815 38132318_2995184815_2995184809 38132318_2995184809_3017389656 38132318_3017389656_2995184803 38132318_2995184803_2995184802 38132318_2995184802_7662845455 38132318_7662845455_448777411 38132318_448777411_448777352 38132318_448777352_2584364559 38132318_2584364559_2882415895 38132318_2882415895_448777482 38132318_448777482_448777363 38132318_448777363_7737693582 38132318_7737693582_7729751197 38132318_7729751197_448777427 38132318_448777427_2669215304 38132318_2669215304_2669215298 38132318_2669215298_2669215293 38132318_2669215293_2963613564 38132318_2963613564_3247640582" /> -->
	
	<!-- Rota Vermelha -->
	<route id="1" edges="295752110_4690367134_6562206059 698817034_6562206059_6562206060 698817035_6562206060_2994406003 698817035_2994406003_2994406008 698817035_2994406008_2994406014 698817035_2994406014_2994406020 698817035_2994406020_2994406025 698817035_2994406025_2994406027 532818918_2994406027_2994406042 532818918_2994406042_2994406056 532818918_2994406056_2994406069 532818918_2994406069_2994406072 532818918_2994406072_6562206221 532818918_6562206221_2988828165 532818918_2988828165_2988828174 524186452_2988828174_4690367398 524186452_4690367398_4690367173 524186451_4690367173_4690367126 38132318_4690367126_2995185012 38132318_2995185012_2995185005 38132318_2995185005_7746431765 425973606_7746431765_2995185003 425973606_2995185003_2995185002 295759030_2995185002_2995185001 295759030_2995185001_2995184994 295759030_2995184994_2995184992 295759030_2995184992_2995184988 295759030_2995184988_448777407 38132343_448777407_3643067930 38132343_3643067930_2995184968 38132343_2995184968_2995184961 38132343_2995184961_2995184953 38132343_2995184953_2988839499 267427062_2988839499_2988839500 267427062_2988839500_2988839501 295758868_2988839501_2995184979 899089962_2995184979_2995184987 899089962_2995184987_2995184997 834378961_2995184997_448777388 381792541_448777388_2582684503 381792541_2582684503_2582684504 381792541_2582684504_2582684505 381792541_2582684505_7652685203 381792541_7652685203_7652685201 381792541_7652685201_7652685202 381792541_7652685202_2582684508 819443194_2582684508_2995184980 295752181_2995184980_2995184968 295752181_2995184968_2995184951 295752181_2995184951_448777449 295752181_448777449_2995056918 295752181_2995056918_2995056909 295752181_2995056909_2995056905 295752181_2995056905_2995056903 295176701_2995056903_3086594831 295176701_3086594831_3086594829 295176701_3086594829_2988813853 267427062_2988813853_2584357131 267427062_2584357131_2728819560 267427062_2728819560_2582319193 267427062_2582319193_2988839498 318362183_2988839498_2995056917 318362183_2995056917_2995056919 318362183_2995056919_448777449 318362183_448777449_2994721542 318362183_2994721542_448777321 318362183_448777321_448777470 318362183_448777470_2994725092 318362183_2994725092_2995056931 318362183_2995056931_8976908311 318362183_8976908311_2995056933 318362183_2995056933_2994406059 318362183_2994406059_4690367127 524186463_4690367127_4690367172 524186459_4690367172_2994406075 524186459_2994406075_2994406079 524186459_2994406079_3085396705 295176818_3085396705_2994406077 295176818_2994406077_7518983627 295176818_7518983627_2994406055 295176818_2994406055_2994406041 295176818_2994406041_2994406025 698817035_2994406025_2994406020  698817035_2994406020_2994406014 698817035_2994406014_2994406008 698817035_2994406008_2994406003  698817035_2994406003_6562206060 698817034_6562206060_6562206059  295752110_6562206059_4690367134 " />
	
	<!-- Rota Verde -->
	<route id="2" edges="834378961_3990976610_2995184997 834378961_2995184997_448777388 381792541_448777388_2582684503 381792541_2582684503_2582684504 381792541_2582684504_2582684505 381792541_2582684505_7652685203 381792541_7652685203_7652685201 381792541_7652685201_7652685202 381792541_7652685202_2582684508 819443194_2582684508_2995184980 295752181_2995184980_2995184968 295752181_2995184968_2995184951 295752181_2995184951_448777449 295752181_448777449_2995056918 295752181_2995056918_2995056909 295752181_2995056909_2995056905 295752181_2995056905_2995056903 295176701_2995056903_3086594831 295176701_3086594831_3086594829 295176701_3086594829_2988813853 267427062_2988813853_2584357131 267427062_2584357131_2728819560 267427062_2728819560_2582319193 267427062_2582319193_2988839498 318362183_2988839498_2995056917 318362183_2995056917_2995056919 318362183_2995056919_448777449 318362183_448777449_2994721542 318362183_2994721542_448777321 318362183_448777321_448777470 318362183_448777470_2994725092 318362183_2994725092_2995056931 318362183_2995056931_8976908311 318362183_8976908311_2995056933 318362183_2995056933_2994406059 318362183_2994406059_4690367127 524186463_4690367127_4690367172 524186459_4690367172_2994406075 524186459_2994406075_2994406079 524186459_2994406079_3085396705 295176818_3085396705_2994406077 295176818_2994406077_7518983627 295176818_7518983627_2994406055 295176818_2994406055_2994406041 295176818_2994406041_2994406025 698817035_2994406025_2994406020  698817035_2994406020_2994406014 698817035_2994406014_2994406008 698817035_2994406008_2994406003 295692228_2994406003_2994406016 295692228_2994406016_2994406033 295692228_2994406033_4690367170 295692228_4690367170_4690367172 524186453_4690367172_4690367173 524186451_4690367173_4690367126 38132318_4690367126_2995185012 38132318_2995185012_2995185005 38132318_2995185005_7746431765 425973606_7746431765_2995185003 425973606_2995185003_2995185002 295759030_2995185002_2995185001 295759030_2995185001_2995184994 295759030_2995184994_2995184992 295759030_2995184992_2995184988 295759030_2995184988_448777407 38132343_448777407_3643067930 38132343_3643067930_2995184968 38132343_2995184968_2995184961 38132343_2995184961_2995184953 38132343_2995184953_2988839499 38132343_2988839499_2995184831" />
	
	<!-- Rota Amarela -->
	<route id="3" edges="267427062_2988813850_2988813853 267427062_2988813853_2584357131 267427062_2584357131_2728819560 267427062_2728819560_2582319193 267427062_2582319193_2988839498 318362183_2988839498_2995056917 318362183_2995056917_2995056919 318362183_2995056919_448777449 318362183_448777449_2994721542 318362183_2994721542_448777321 318362183_448777321_448777470 318362183_448777470_2994725092 318362183_2994725092_2995056931 318362183_2995056931_8976908311 318362183_8976908311_2995056933 318362183_2995056933_2994406059 318362183_2994406059_4690367127 475269738_4690367127_3086601542 475269738_3086601542_4690367134 295752110_4690367134_6562206059 698817034_6562206059_6562206060 698817035_6562206060_2994406003 698817035_2994406003_2994406008 698817035_2994406008_2994406014 698817035_2994406014_2994406020 698817035_2994406020_2994406025 698817035_2994406025_2994406027 532818918_2994406027_2994406042 532818918_2994406042_2994406056 532818918_2994406056_2994406069 532818918_2994406069_2994406072 532818918_2994406072_6562206221 532818918_6562206221_2988828165 532818918_2988828165_2988828174 524186452_2988828174_4690367398 524186452_4690367398_4690367173 524186451_4690367173_4690367126 38132318_4690367126_2995185012 38132318_2995185012_2995185005 38132318_2995185005_7746431765 425973606_7746431765_2995185003 425973606_2995185003_2995185002 295759030_2995185002_2995185001 295759030_2995185001_2995184994 295759030_2995184994_2995184992 295759030_2995184992_2995184988 295759030_2995184988_448777407 38132343_448777407_3643067930 38132343_3643067930_2995184968 38132343_2995184968_2995184961 38132343_2995184961_2995184953 38132343_2995184953_2988839499 267427062_2988839499_2988839500 267427062_2988839500_2988839501 295758868_2988839501_2995184979 899089962_2995184979_2995184987 899089962_2995184987_2995184997 834378961_2995184997_448777388 " />
	
	<!-- Rota Azul - Apenas Av. Presidente Vargas -->
	<!--route id="4" edges="524186452_448777439_2988828174 524186452_2988828174_4690367398 524186452_4690367398_4690367173 524186451_4690367173_4690367126 38132318_4690367126_2995185012 38132318_2995185012_2995185005 38132318_2995185005_7746431765 38132318_7746431765_2995184996 38132318_2995184996_2995184991 38132318_2995184991_2995184986 38132318_2995184986_2995184984 38132318_2995184984_2995184976 38132318_2995184976_448777479 38132318_448777479_448777430 38132318_448777430_2995184951 38132318_2995184951_2995184941 38132318_2995184941_2995184936 38132318_2995184936_448777469 267427062_448777469_2988839499 38132343_2988839499_2995184831 295752147_2995184831_2995184820 295752147_2995184820_2995056907 318362183_2995056907_2988839498 318362183_2988839498_2995056917 318362183_2995056917_2995056919 318362183_2995056919_448777449 318362183_448777449_2994721542 318362183_2994721542_448777321 318362183_448777321_448777470 318362183_448777470_2994725092 318362183_2994725092_2995056931 318362183_2995056931_8976908311 318362183_8976908311_2995056933 318362183_2995056933_2994406059 318362183_2994406059_4690367127 524186463_4690367127_4690367172 524186459_4690367172_2994406075 524186459_2994406075_2994406079 524186459_2994406079_3085396705 524186459_3085396705_2988828165 524186459_2988828165_448777494" />-->
	<!-- Rota Azul - extendida-->
	<route id="4" edges="524186452_448777439_2988828174 524186452_2988828174_4690367398 524186452_4690367398_4690367173 524186451_4690367173_4690367126 38132318_4690367126_2995185012 38132318_2995185012_2995185005 38132318_2995185005_7746431765 38132318_7746431765_2995184996 38132318_2995184996_2995184991 38132318_2995184991_2995184986 38132318_2995184986_2995184984 38132318_2995184984_2995184976 38132318_2995184976_448777479 38132318_448777479_448777430 38132318_448777430_2995184951 38132318_2995184951_2995184941 38132318_2995184941_2995184936 38132318_2995184936_448777469 267427062_448777469_2988839499 267427062_2988839499_2988839500 267427062_2988839500_2988839501 295758868_2988839501_2995184979 899089962_2995184979_2995184987 899089962_2995184987_2995184997 834378961_2995184997_448777388 381792541_448777388_2582684503 381792541_2582684503_2582684504 381792541_2582684504_2582684505 381792541_2582684505_7652685203 381792541_7652685203_7652685201 381792541_7652685201_7652685202 381792541_7652685202_2582684508 819443194_2582684508_2995184980 295752181_2995184980_2995184968 295752181_2995184968_2995184951 295752181_2995184951_448777449 295752181_448777449_2995056918 295752181_2995056918_2995056909 295752181_2995056909_2995056905 295752181_2995056905_2995056903 295176701_2995056903_3086594831 295176701_3086594831_3086594829 295176701_3086594829_2988813853 267427062_2988813853_2584357131 267427062_2584357131_2728819560 267427062_2728819560_2582319193 267427062_2582319193_2988839498 318362183_2988839498_2995056917 318362183_2995056917_2995056919 318362183_2995056919_448777449 318362183_448777449_2994721542 318362183_2994721542_448777321 318362183_448777321_448777470 318362183_448777470_2994725092 318362183_2994725092_2995056931 318362183_2995056931_8976908311 318362183_8976908311_2995056933 318362183_2995056933_2994406059 318362183_2994406059_4690367127 524186463_4690367127_4690367172 524186459_4690367172_2994406075 524186459_2994406075_2994406079 524186459_2994406079_3085396705 524186459_3085396705_2988828165 524186459_2988828165_448777494" />
</routes>


<!-- 
	Backup de rotas originais - Av. Presidente Getúlio Vargas
	<backup1>
	<route id="1" edges="524186452_448777439_2988828174 524186452_2988828174_4690367398 524186452_4690367398_4690367173 524186451_4690367173_4690367126 38132318_4690367126_2995185012 38132318_2995185012_2995185005 38132318_2995185005_7746431765 38132318_7746431765_2995184996 38132318_2995184996_2995184991 38132318_2995184991_2995184986 38132318_2995184986_2995184984 38132318_2995184984_2995184976 38132318_2995184976_448777479 38132318_448777479_448777430 38132318_448777430_2995184951 38132318_2995184951_2995184941 38132318_2995184941_2995184936 38132318_2995184936_448777469 38132318_448777469_2995184820 38132318_2995184820_2995184815 38132318_2995184815_2995184809 38132318_2995184809_3017389656 38132318_3017389656_2995184803 38132318_2995184803_2995184802 38132318_2995184802_7662845455 38132318_7662845455_448777411 38132318_448777411_448777352 38132318_448777352_2584364559 38132318_2584364559_2882415895 38132318_2882415895_448777482 38132318_448777482_448777363 38132318_448777363_7737693582 38132318_7737693582_7729751197 38132318_7729751197_448777427 38132318_448777427_2669215304 38132318_2669215304_2669215298 38132318_2669215298_2669215293 38132318_2669215293_2963613564 38132318_2963613564_3247640582" />
	<route id="2" edges="318362183_3247640578_2963613562 318362183_2963613562_2669215292 318362183_2669215292_2669215277 318362183_2669215277_2669215278 318362183_2669215278_448777418 318362183_448777418_2995184800 318362183_2995184800_448777314 318362183_448777314_448777345 318362183_448777345_2882415894 318362183_2882415894_2584357089 318362183_2584357089_2536860298 318362183_2536860298_2582319197 318362183_2582319197_8353988254 318362183_8353988254_2995056897 318362183_2995056897_2995056901 318362183_2995056901_2988814461 318362183_2988814461_2995056904 318362183_2995056904_2995056906 318362183_2995056906_2995056907 318362183_2995056907_2988839498 318362183_2988839498_2995056917 318362183_2995056917_2995056919 318362183_2995056919_448777449 318362183_448777449_2994721542 318362183_2994721542_448777321 318362183_448777321_448777470 318362183_448777470_2994725092 318362183_2994725092_2995056931 318362183_2995056931_8976908311 318362183_8976908311_2995056933 318362183_2995056933_2994406059 318362183_2994406059_4690367127 524186463_4690367127_4690367172 524186459_4690367172_2994406075 524186459_2994406075_2994406079 524186459_2994406079_3085396705 524186459_3085396705_2988828165 524186459_2988828165_448777494" />
	</backup1>

	
	<vehicle id="Route1A" type="Route1A" depart="0">
	</vehicle>
	
	<vehicle id="Car1B" type="Route1B" depart="0">
	</vehicle>

	<route id="1" edges="524186452_448777439_2988828174 524186452_2988828174_4690367398 524186452_4690367398_4690367173 524186451_4690367173_4690367126 38132318_4690367126_2995185012 38132318_2995185012_2995185005 38132318_2995185005_7746431765 38132318_7746431765_2995184996 38132318_2995184996_2995184991 38132318_2995184991_2995184986 38132318_2995184986_2995184984 38132318_2995184984_2995184976 38132318_2995184976_448777479 38132318_448777479_448777430 38132318_448777430_2995184951 38132318_2995184951_2995184941 38132318_2995184941_2995184936 38132318_2995184936_448777469 38132318_448777469_2995184820 295752147_2995056907_2582319192 252125979_2582319192_2582319193 252125979_2582319193_2582319194 252125979_2582319194_2728819567 252125979_2728819567_2995056918 252125979_2995056918_2994721541 252125979_2994721541_2582319195 897950819_2582319195_2995056923 " />
-->