<nodes>
	<node id="2536860298" x="508570.68" y="8033169.23" z="0.00" type="traffic_light" />
	<node id="2582319192" x="507736.52" y="8032874.58" z="0.00" type="priority" />
	<node id="2582319193" x="507579.25" y="8032794.60" z="0.00" type="priority" />
	<node id="2582319194" x="507472.20" y="8032741.70" z="0.00" type="priority" />
	<node id="2582319195" x="507062.23" y="8032535.71" z="0.00" type="priority" />
	<node id="2582319196" x="506893.14" y="8032455.86" z="0.00" type="priority" />
	<node id="2582319197" x="508432.78" y="8033099.85" z="0.00" type="traffic_light" />
	<node id="2582611683" x="508826.11" y="8033419.62" z="0.00" type="priority" />
	<node id="2582684503" x="507665.66" y="8032151.97" z="0.00" type="priority" />
	<node id="2582684504" x="507637.14" y="8032178.88" z="0.00" type="priority" />
	<node id="2582684505" x="507583.50" y="8032234.59" z="0.00" type="priority" />
	<node id="2582684508" x="507452.90" y="8032352.81" z="0.00" type="traffic_light" />
	<node id="2584357089" x="508661.34" y="8033213.46" z="0.00" type="traffic_light" />
	<node id="2584357131" x="507472.88" y="8033007.80" z="0.00" type="priority" />
	<node id="2584357136" x="506899.17" y="8032719.82" z="0.00" type="priority" />
	<node id="2584364559" x="508667.76" y="8033200.72" z="0.00" type="traffic_light" />
	<node id="2669215277" x="509785.82" y="8033515.71" z="0.00" type="traffic_light" />
	<node id="2669215278" x="509692.35" y="8033531.96" z="0.00" type="traffic_light" />
	<node id="2669215292" x="509880.39" y="8033496.31" z="0.00" type="traffic_light" />
	<node id="2669215293" x="509877.75" y="8033486.31" z="0.00" type="traffic_light" />
	<node id="2669215298" x="509784.65" y="8033503.19" z="0.00" type="traffic_light" />
	<node id="2669215304" x="509690.25" y="8033518.99" z="0.00" type="traffic_light" />
	<node id="2728819556" x="507365.05" y="8032953.05" z="0.00" type="priority" />
	<node id="2728819558" x="507266.23" y="8032903.60" z="0.00" type="priority" />
	<node id="2728819560" x="507528.47" y="8032898.78" z="0.00" type="priority" />
	<node id="2728819563" x="507417.93" y="8032845.85" z="0.00" type="priority" />
	<node id="2728819564" x="507320.85" y="8032794.10" z="0.00" type="priority" />
	<node id="2728819567" x="507372.17" y="8032690.33" z="0.00" type="priority" />
	<node id="2847459799" x="508909.53" y="8033592.82" z="0.00" type="priority" />
	<node id="2882415894" x="508909.31" y="8033338.90" z="0.00" type="traffic_light" />
	<node id="2882415895" x="508916.11" y="8033326.03" z="0.00" type="traffic_light" />
	<node id="2963613562" x="510066.45" y="8033464.33" z="0.00" type="traffic_light" />
	<node id="2963613564" x="510064.48" y="8033451.89" z="0.00" type="traffic_light" />
	<node id="2963852932" x="508326.31" y="8033300.91" z="0.00" type="traffic_light" />
	<node id="2988812543" x="507526.36" y="8033718.56" z="0.00" type="priority" />
	<node id="2988813844" x="507656.63" y="8033206.03" z="0.00" type="priority" />
	<node id="2988813845" x="507356.83" y="8033253.50" z="0.00" type="priority" />
	<node id="2988813846" x="507245.97" y="8033192.36" z="0.00" type="priority" />
	<node id="2988813847" x="507145.64" y="8033139.46" z="0.00" type="priority" />
	<node id="2988813848" x="506844.35" y="8032982.30" z="0.00" type="priority" />
	<node id="2988813849" x="507571.30" y="8033135.09" z="0.00" type="priority" />
	<node id="2988813850" x="507408.76" y="8033143.57" z="0.00" type="priority" />
	<node id="2988813851" x="507296.35" y="8033087.98" z="0.00" type="priority" />
	<node id="2988813852" x="507003.27" y="8032935.32" z="0.00" type="priority" />
	<node id="2988813853" x="507438.92" y="8033079.71" z="0.00" type="priority" />
	<node id="2988813854" x="507034.36" y="8032870.07" z="0.00" type="priority" />
	<node id="2988814442" x="507635.13" y="8033085.59" z="0.00" type="priority" />
	<node id="2988814461" x="508096.75" y="8032932.02" z="0.00" type="traffic_light" />
	<node id="2988828165" x="506172.59" y="8031972.34" z="0.00" type="traffic_light" />
	<node id="2988828174" x="506177.67" y="8031959.27" z="0.00" type="traffic_light" />
	<node id="2988839498" x="507626.17" y="8032698.54" z="0.00" type="traffic_light" />
	<node id="2988839499" x="507681.36" y="8032588.01" z="0.00" type="priority" />
	<node id="2988839500" x="507728.28" y="8032492.63" z="0.00" type="priority" />
	<node id="2988839501" x="507754.80" y="8032437.04" z="0.00" type="priority" />
	<node id="2988888854" x="507046.56" y="8033339.19" z="0.00" type="priority" />
	<node id="2994405788" x="505618.15" y="8033378.59" z="0.00" type="priority" />
	<node id="2994405792" x="505722.93" y="8033340.10" z="0.00" type="priority" />
	<node id="2994405809" x="506205.29" y="8033183.99" z="0.00" type="priority" />
	<node id="2994405818" x="506282.53" y="8033111.70" z="0.00" type="priority" />
	<node id="2994405825" x="506414.45" y="8033064.87" z="0.00" type="priority" />
	<node id="2994405830" x="506346.54" y="8033047.39" z="0.00" type="priority" />
	<node id="2994405832" x="506020.70" y="8033042.29" z="0.00" type="priority" />
	<node id="2994405833" x="506245.26" y="8033026.65" z="0.00" type="priority" />
	<node id="2994405836" x="505908.75" y="8033014.95" z="0.00" type="priority" />
	<node id="2994405837" x="506493.57" y="8033008.87" z="0.00" type="priority" />
	<node id="2994405839" x="506494.62" y="8032998.13" z="0.00" type="priority" />
	<node id="2994405840" x="506142.43" y="8033000.38" z="0.00" type="priority" />
	<node id="2994405842" x="505812.21" y="8032989.29" z="0.00" type="priority" />
	<node id="2994405844" x="506364.11" y="8032976.75" z="0.00" type="priority" />
	<node id="2994405847" x="506040.63" y="8032970.89" z="0.00" type="priority" />
	<node id="2994405848" x="505724.44" y="8032967.91" z="0.00" type="priority" />
	<node id="2994405849" x="505708.53" y="8032964.17" z="0.00" type="priority" />
	<node id="2994405850" x="506366.91" y="8032965.75" z="0.00" type="priority" />
	<node id="2994405852" x="506265.21" y="8032949.34" z="0.00" type="priority" />
	<node id="2994405853" x="505938.60" y="8032944.87" z="0.00" type="priority" />
	<node id="2994405854" x="505926.08" y="8032941.16" z="0.00" type="priority" />
	<node id="2994405855" x="506267.56" y="8032939.12" z="0.00" type="priority" />
	<node id="2994405856" x="505608.80" y="8032937.93" z="0.00" type="priority" />
	<node id="2994405859" x="506161.49" y="8032924.97" z="0.00" type="priority" />
	<node id="2994405860" x="506487.25" y="8032919.47" z="0.00" type="priority" />
	<node id="2994405861" x="505830.22" y="8032916.03" z="0.00" type="priority" />
	<node id="2994405863" x="506164.19" y="8032913.51" z="0.00" type="priority" />
	<node id="2994405864" x="505504.79" y="8032911.50" z="0.00" type="priority" />
	<node id="2994405866" x="506059.21" y="8032898.90" z="0.00" type="priority" />
	<node id="2994405867" x="506385.92" y="8032891.80" z="0.00" type="priority" />
	<node id="2994405868" x="505729.24" y="8032892.16" z="0.00" type="priority" />
	<node id="2994405869" x="506061.04" y="8032888.21" z="0.00" type="priority" />
	<node id="2994405873" x="506285.09" y="8032868.04" z="0.00" type="priority" />
	<node id="2994405874" x="505627.03" y="8032865.26" z="0.00" type="priority" />
	<node id="2994405878" x="505846.77" y="8032843.55" z="0.00" type="priority" />
	<node id="2994405880" x="506182.01" y="8032844.53" z="0.00" type="priority" />
	<node id="2994405881" x="505523.71" y="8032838.90" z="0.00" type="priority" />
	<node id="2994405883" x="505849.93" y="8032832.97" z="0.00" type="priority" />
	<node id="2994405885" x="506076.58" y="8032816.48" z="0.00" type="priority" />
	<node id="2994405888" x="506408.11" y="8032805.73" z="0.00" type="priority" />
	<node id="2994405890" x="505645.74" y="8032793.49" z="0.00" type="priority" />
	<node id="2994405892" x="506595.64" y="8032790.38" z="0.00" type="priority" />
	<node id="2994405893" x="505976.24" y="8032791.44" z="0.00" type="priority" />
	<node id="2994405894" x="505963.78" y="8032787.97" z="0.00" type="priority" />
	<node id="2994405896" x="505313.23" y="8032785.57" z="0.00" type="priority" />
	<node id="2994405897" x="505648.74" y="8032783.17" z="0.00" type="priority" />
	<node id="2994405898" x="506307.01" y="8032780.84" z="0.00" type="priority" />
	<node id="2994405901" x="505541.76" y="8032767.07" z="0.00" type="priority" />
	<node id="2994405902" x="505868.64" y="8032762.41" z="0.00" type="priority" />
	<node id="2994405903" x="505543.86" y="8032757.03" z="0.00" type="priority" />
	<node id="2994405904" x="506205.47" y="8032755.35" z="0.00" type="priority" />
	<node id="2994405914" x="505766.89" y="8032735.47" z="0.00" type="priority" />
	<node id="2994405915" x="506099.45" y="8032727.53" z="0.00" type="priority" />
	<node id="2994405919" x="506428.75" y="8032719.43" z="0.00" type="priority" />
	<node id="2994405921" x="505666.58" y="8032710.82" z="0.00" type="priority" />
	<node id="2994405923" x="505999.15" y="8032702.36" z="0.00" type="priority" />
	<node id="2994405924" x="505987.36" y="8032698.71" z="0.00" type="priority" />
	<node id="2994405925" x="506329.65" y="8032694.44" z="0.00" type="priority" />
	<node id="2994405927" x="505271.65" y="8032689.60" z="0.00" type="priority" />
	<node id="2994405928" x="505562.89" y="8032685.16" z="0.00" type="priority" />
	<node id="2994405929" x="505890.67" y="8032674.06" z="0.00" type="priority" />
	<node id="2994405931" x="506226.71" y="8032668.49" z="0.00" type="priority" />
	<node id="2994405936" x="505788.56" y="8032647.77" z="0.00" type="priority" />
	<node id="2994405938" x="506445.44" y="8032647.70" z="0.00" type="priority" />
	<node id="2994405939" x="506122.40" y="8032640.28" z="0.00" type="priority" />
	<node id="2994405940" x="505351.76" y="8032632.12" z="0.00" type="priority" />
	<node id="2994405941" x="505688.19" y="8032622.59" z="0.00" type="priority" />
	<node id="2994405942" x="506343.41" y="8032621.40" z="0.00" type="priority" />
	<node id="2994405943" x="506021.16" y="8032615.35" z="0.00" type="priority" />
	<node id="2994405945" x="506009.20" y="8032611.59" z="0.00" type="priority" />
	<node id="2994405949" x="506455.76" y="8032602.33" z="0.00" type="priority" />
	<node id="2994405951" x="505585.01" y="8032596.53" z="0.00" type="priority" />
	<node id="2994405952" x="506245.44" y="8032595.81" z="0.00" type="priority" />
	<node id="2994405959" x="505914.28" y="8032589.71" z="0.00" type="priority" />
	<node id="2994405965" x="506452.23" y="8032572.37" z="0.00" type="priority" />
	<node id="2994405966" x="506141.46" y="8032568.09" z="0.00" type="priority" />
	<node id="2994405967" x="505810.12" y="8032563.45" z="0.00" type="priority" />
	<node id="2994405969" x="506362.77" y="8032547.87" z="0.00" type="priority" />
	<node id="2994405971" x="506039.72" y="8032543.34" z="0.00" type="priority" />
	<node id="2994405972" x="506027.59" y="8032540.46" z="0.00" type="priority" />
	<node id="2994405973" x="505710.99" y="8032538.45" z="0.00" type="priority" />
	<node id="2994405975" x="506264.38" y="8032521.79" z="0.00" type="priority" />
	<node id="2994405976" x="505933.12" y="8032516.13" z="0.00" type="priority" />
	<node id="2994405979" x="505606.11" y="8032512.00" z="0.00" type="priority" />
	<node id="2994405983" x="506159.44" y="8032495.27" z="0.00" type="priority" />
	<node id="2994405984" x="506449.97" y="8032495.43" z="0.00" type="priority" />
	<node id="2994405986" x="505828.94" y="8032489.55" z="0.00" type="priority" />
	<node id="2994405988" x="506381.46" y="8032476.30" z="0.00" type="priority" />
	<node id="2994405989" x="506058.01" y="8032470.17" z="0.00" type="priority" />
	<node id="2994405990" x="506046.24" y="8032467.59" z="0.00" type="priority" />
	<node id="2994405992" x="505730.15" y="8032464.35" z="0.00" type="priority" />
	<node id="2994405993" x="506606.18" y="8032461.20" z="0.00" type="priority" />
	<node id="2994405994" x="505396.50" y="8032458.87" z="0.00" type="priority" />
	<node id="2994405995" x="506282.53" y="8032450.24" z="0.00" type="priority" />
	<node id="2994405999" x="505948.24" y="8032443.77" z="0.00" type="priority" />
	<node id="2994406001" x="505625.22" y="8032437.57" z="0.00" type="priority" />
	<node id="2994406002" x="504935.46" y="8032434.32" z="0.00" type="priority" />
	<node id="2994406003" x="506469.05" y="8032430.54" z="0.00" type="priority" />
	<node id="2994406005" x="506177.99" y="8032422.77" z="0.00" type="priority" />
	<node id="2994406007" x="505847.51" y="8032416.12" z="0.00" type="priority" />
	<node id="2994406008" x="506398.44" y="8032412.55" z="0.00" type="priority" />
	<node id="2994406011" x="506078.25" y="8032397.62" z="0.00" type="priority" />
	<node id="2994406012" x="506068.20" y="8032394.48" z="0.00" type="priority" />
	<node id="2994406013" x="505748.96" y="8032391.13" z="0.00" type="priority" />
	<node id="2994406014" x="506298.74" y="8032385.97" z="0.00" type="priority" />
	<node id="2994406016" x="506485.69" y="8032366.96" z="0.00" type="priority" />
	<node id="2994406017" x="505965.68" y="8032368.77" z="0.00" type="priority" />
	<node id="2994406019" x="505643.85" y="8032364.49" z="0.00" type="priority" />
	<node id="2994406020" x="506193.36" y="8032359.49" z="0.00" type="priority" />
	<node id="2994406021" x="506414.26" y="8032349.07" z="0.00" type="priority" />
	<node id="2994406023" x="505864.65" y="8032342.24" z="0.00" type="priority" />
	<node id="2994406025" x="506093.28" y="8032333.73" z="0.00" type="priority" />
	<node id="2994406027" x="506083.99" y="8032331.17" z="0.00" type="priority" />
	<node id="2994406028" x="506314.30" y="8032322.29" z="0.00" type="priority" />
	<node id="2994406029" x="505764.51" y="8032317.61" z="0.00" type="priority" />
	<node id="2994406031" x="505432.33" y="8032310.87" z="0.00" type="priority" />
	<node id="2994406032" x="505981.93" y="8032306.63" z="0.00" type="priority" />
	<node id="2994406033" x="506500.91" y="8032304.86" z="0.00" type="priority" />
	<node id="2994406035" x="505084.30" y="8032298.01" z="0.00" type="priority" />
	<node id="2994406036" x="506209.63" y="8032294.72" z="0.00" type="priority" />
	<node id="2994406037" x="505659.22" y="8032291.35" z="0.00" type="priority" />
	<node id="2994406038" x="506430.47" y="8032286.04" z="0.00" type="priority" />
	<node id="2994406039" x="505879.04" y="8032282.48" z="0.00" type="priority" />
	<node id="2994406041" x="506108.95" y="8032270.08" z="0.00" type="priority" />
	<node id="2994406042" x="506097.76" y="8032268.05" z="0.00" type="priority" />
	<node id="2994406043" x="505882.59" y="8032267.31" z="0.00" type="priority" />
	<node id="2994406045" x="506330.00" y="8032261.70" z="0.00" type="priority" />
	<node id="2994406047" x="505781.75" y="8032245.34" z="0.00" type="priority" />
	<node id="2994406048" x="505997.97" y="8032243.41" z="0.00" type="priority" />
	<node id="2994406049" x="506226.37" y="8032233.48" z="0.00" type="priority" />
	<node id="2994406050" x="505450.57" y="8032237.29" z="0.00" type="priority" />
	<node id="2994406051" x="505676.64" y="8032219.41" z="0.00" type="priority" />
	<node id="2994406052" x="506446.08" y="8032222.48" z="0.00" type="priority" />
	<node id="2994406054" x="505895.48" y="8032216.98" z="0.00" type="priority" />
	<node id="2994406055" x="506124.77" y="8032209.26" z="0.00" type="priority" />
	<node id="2994406056" x="506112.45" y="8032205.40" z="0.00" type="priority" />
	<node id="2994406057" x="505580.86" y="8032204.68" z="0.00" type="priority" />
	<node id="2994406059" x="506617.38" y="8032191.26" z="0.00" type="traffic_light" />
	<node id="2994406060" x="505900.82" y="8032195.51" z="0.00" type="priority" />
	<node id="2994406061" x="506346.23" y="8032197.76" z="0.00" type="priority" />
	<node id="2994406063" x="505684.36" y="8032192.00" z="0.00" type="priority" />
	<node id="2994406064" x="506012.98" y="8032180.30" z="0.00" type="priority" />
	<node id="2994406066" x="506240.84" y="8032173.68" z="0.00" type="priority" />
	<node id="2994406068" x="505913.18" y="8032155.41" z="0.00" type="priority" />
	<node id="2994406069" x="506128.40" y="8032142.18" z="0.00" type="priority" />
	<node id="2994406070" x="506362.71" y="8032137.11" z="0.00" type="priority" />
	<node id="2994406072" x="506138.28" y="8032103.55" z="0.00" type="priority" />
	<node id="2994406073" x="505925.47" y="8032089.67" z="0.00" type="priority" />
	<node id="2994406074" x="506266.09" y="8032091.25" z="0.00" type="priority" />
	<node id="2994406075" x="506391.72" y="8032079.41" z="0.00" type="priority" />
	<node id="2994406076" x="505896.16" y="8032049.60" z="0.00" type="priority" />
	<node id="2994406077" x="506166.12" y="8032042.36" z="0.00" type="priority" />
	<node id="2994406078" x="506050.69" y="8032035.12" z="0.00" type="priority" />
	<node id="2994406079" x="506296.17" y="8032031.81" z="0.00" type="priority" />
	<node id="2994406080" x="506008.17" y="8032003.22" z="0.00" type="priority" />
	<node id="2994406081" x="506623.89" y="8031959.30" z="0.00" type="priority" />
	<node id="2994406082" x="505796.98" y="8031926.70" z="0.00" type="priority" />
	<node id="2994406083" x="505873.85" y="8031899.52" z="0.00" type="priority" />
	<node id="2994721425" x="506852.17" y="8033248.24" z="0.00" type="priority" />
	<node id="2994721537" x="506954.53" y="8033033.53" z="0.00" type="priority" />
	<node id="2994721538" x="506906.70" y="8032851.75" z="0.00" type="priority" />
	<node id="2994721539" x="507063.36" y="8032805.05" z="0.00" type="priority" />
	<node id="2994721540" x="507118.65" y="8032693.11" z="0.00" type="priority" />
	<node id="2994721541" x="507168.86" y="8032588.44" z="0.00" type="priority" />
	<node id="2994721542" x="507215.09" y="8032492.02" z="0.00" type="traffic_light" />
	<node id="2994725092" x="506894.60" y="8032333.68" z="0.00" type="priority" />
	<node id="2995056885" x="506983.38" y="8033221.95" z="0.00" type="priority" />
	<node id="2995056892" x="507051.07" y="8033086.58" z="0.00" type="priority" />
	<node id="2995056897" x="508301.59" y="8033034.86" z="0.00" type="traffic_light" />
	<node id="2995056898" x="507100.23" y="8032985.10" z="0.00" type="priority" />
	<node id="2995056900" x="507686.51" y="8032979.57" z="0.00" type="priority" />
	<node id="2995056901" x="508199.05" y="8032983.26" z="0.00" type="traffic_light" />
	<node id="2995056903" x="507132.77" y="8032921.06" z="0.00" type="priority" />
	<node id="2995056904" x="507993.29" y="8032880.86" z="0.00" type="traffic_light" />
	<node id="2995056905" x="507165.98" y="8032856.03" z="0.00" type="priority" />
	<node id="2995056906" x="507889.74" y="8032828.90" z="0.00" type="traffic_light" />
	<node id="2995056907" x="507786.12" y="8032776.84" z="0.00" type="traffic_light" />
	<node id="2995056908" x="506788.90" y="8032765.27" z="0.00" type="priority" />
	<node id="2995056909" x="507219.00" y="8032743.47" z="0.00" type="priority" />
	<node id="2995056910" x="506596.46" y="8032725.85" z="0.00" type="priority" />
	<node id="2995056911" x="506693.77" y="8032723.69" z="0.00" type="priority" />
	<node id="2995056912" x="506789.23" y="8032723.69" z="0.00" type="priority" />
	<node id="2995056913" x="506897.33" y="8032669.91" z="0.00" type="priority" />
	<node id="2995056914" x="506785.16" y="8032663.87" z="0.00" type="priority" />
	<node id="2995056915" x="506696.12" y="8032660.71" z="0.00" type="priority" />
	<node id="2995056916" x="506598.91" y="8032656.76" z="0.00" type="priority" />
	<node id="2995056917" x="507521.38" y="8032645.12" z="0.00" type="traffic_light" />
	<node id="2995056918" x="507272.03" y="8032638.80" z="0.00" type="priority" />
	<node id="2995056919" x="507420.41" y="8032594.81" z="0.00" type="traffic_light" />
	<node id="2995056921" x="506788.02" y="8032584.76" z="0.00" type="priority" />
	<node id="2995056922" x="506700.41" y="8032527.27" z="0.00" type="priority" />
	<node id="2995056923" x="506953.81" y="8032484.04" z="0.00" type="priority" />
	<node id="2995056924" x="506794.10" y="8032477.50" z="0.00" type="priority" />
	<node id="2995056925" x="506702.08" y="8032475.40" z="0.00" type="priority" />
	<node id="2995056927" x="506891.67" y="8032374.66" z="0.00" type="priority" />
	<node id="2995056928" x="506799.94" y="8032372.51" z="0.00" type="priority" />
	<node id="2995056929" x="506705.53" y="8032368.42" z="0.00" type="priority" />
	<node id="2995056930" x="506609.79" y="8032364.26" z="0.00" type="priority" />
	<node id="2995056931" x="506799.16" y="8032286.05" z="0.00" type="traffic_light" />
	<node id="2995056933" x="506709.74" y="8032239.22" z="0.00" type="traffic_light" />
	<node id="2995184776" x="509245.11" y="8033877.76" z="0.00" type="priority" />
	<node id="2995184800" x="509261.58" y="8033510.10" z="0.00" type="traffic_light" />
	<node id="2995184802" x="508307.26" y="8033023.71" z="0.00" type="traffic_light" />
	<node id="2995184803" x="508204.12" y="8032972.34" z="0.00" type="traffic_light" />
	<node id="2995184809" x="507999.00" y="8032869.26" z="0.00" type="traffic_light" />
	<node id="2995184815" x="507896.28" y="8032817.27" z="0.00" type="traffic_light" />
	<node id="2995184820" x="507792.34" y="8032765.48" z="0.00" type="traffic_light" />
	<node id="2995184831" x="507841.66" y="8032668.87" z="0.00" type="traffic_light" />
	<node id="2995184934" x="508060.28" y="8032660.83" z="0.00" type="priority" />
	<node id="2995184936" x="507526.86" y="8032632.94" z="0.00" type="traffic_light" />
	<node id="2995184941" x="507426.02" y="8032583.57" z="0.00" type="traffic_light" />
	<node id="2995184943" x="507926.10" y="8032591.93" z="0.00" type="priority" />
	<node id="2995184951" x="507323.09" y="8032531.30" z="0.00" type="traffic_light" />
	<node id="2995184953" x="507576.75" y="8032537.03" z="0.00" type="traffic_light" />
	<node id="2995184961" x="507472.55" y="8032485.02" z="0.00" type="priority" />
	<node id="2995184966" x="507626.50" y="8032438.67" z="0.00" type="priority" />
	<node id="2995184968" x="507371.61" y="8032432.93" z="0.00" type="priority" />
	<node id="2995184973" x="507520.98" y="8032389.50" z="0.00" type="priority" />
	<node id="2995184976" x="507009.27" y="8032375.22" z="0.00" type="traffic_light" />
	<node id="2995184979" x="507672.34" y="8032343.00" z="0.00" type="priority" />
	<node id="2995184980" x="507420.75" y="8032336.48" z="0.00" type="priority" />
	<node id="2995184984" x="506907.06" y="8032323.86" z="0.00" type="priority" />
	<node id="2995184986" x="506895.54" y="8032318.47" z="0.00" type="priority" />
	<node id="2995184987" x="507719.90" y="8032281.17" z="0.00" type="priority" />
	<node id="2995184988" x="507060.65" y="8032276.74" z="0.00" type="priority" />
	<node id="2995184991" x="506800.65" y="8032270.40" z="0.00" type="traffic_light" />
	<node id="2995184992" x="507016.74" y="8032254.11" z="0.00" type="priority" />
	<node id="2995184994" x="506954.59" y="8032224.40" z="0.00" type="priority" />
	<node id="2995184995" x="507087.55" y="8032225.51" z="0.00" type="priority" />
	<node id="2995184996" x="506710.64" y="8032225.34" z="0.00" type="traffic_light" />
	<node id="2995184997" x="507807.94" y="8032211.30" z="0.00" type="priority" />
	<node id="2995184999" x="507378.02" y="8032189.78" z="0.00" type="priority" />
	<node id="2995185001" x="506897.47" y="8032194.03" z="0.00" type="priority" />
	<node id="2995185002" x="506806.47" y="8032188.46" z="0.00" type="priority" />
	<node id="2995185003" x="506712.12" y="8032182.70" z="0.00" type="priority" />
	<node id="2995185005" x="506617.53" y="8032178.60" z="0.00" type="traffic_light" />
	<node id="2995185006" x="507531.62" y="8032176.92" z="0.00" type="traffic_light" />
	<node id="2995185009" x="507261.52" y="8032132.40" z="0.00" type="traffic_light" />
	<node id="2995185010" x="507590.28" y="8032122.74" z="0.00" type="priority" />
	<node id="2995185011" x="507005.31" y="8032124.87" z="0.00" type="priority" />
	<node id="2995185012" x="506518.14" y="8032130.19" z="0.00" type="priority" />
	<node id="2995185014" x="507422.91" y="8032094.52" z="0.00" type="traffic_light" />
	<node id="2995185015" x="507155.72" y="8032079.51" z="0.00" type="priority" />
	<node id="2995185016" x="506902.43" y="8032074.97" z="0.00" type="priority" />
	<node id="2995185017" x="506808.94" y="8032070.16" z="0.00" type="priority" />
	<node id="2995185018" x="506716.26" y="8032067.61" z="0.00" type="priority" />
	<node id="2995185019" x="506622.15" y="8032062.56" z="0.00" type="priority" />
	<node id="2995185020" x="506523.37" y="8032059.70" z="0.00" type="priority" />
	<node id="2995185022" x="507304.37" y="8032042.60" z="0.00" type="traffic_light" />
	<node id="2995185023" x="507056.55" y="8032033.16" z="0.00" type="priority" />
	<node id="2995185024" x="507483.55" y="8032017.66" z="0.00" type="priority" />
	<node id="2995185028" x="507183.56" y="8031988.51" z="0.00" type="priority" />
	<node id="2995185029" x="507544.89" y="8031975.78" z="0.00" type="priority" />
	<node id="2995185030" x="506908.93" y="8031966.38" z="0.00" type="priority" />
	<node id="2995185031" x="506812.75" y="8031960.44" z="0.00" type="priority" />
	<node id="2995185133" x="506720.30" y="8031959.93" z="0.00" type="priority" />
	<node id="2995185136" x="507093.07" y="8031946.83" z="0.00" type="priority" />
	<node id="2995185137" x="506527.32" y="8031938.68" z="0.00" type="priority" />
	<node id="2995185257" x="507139.02" y="8031388.12" z="0.00" type="priority" />
	<node id="3017389649" x="507160.08" y="8033109.91" z="0.00" type="priority" />
	<node id="3017389656" x="508101.47" y="8032921.32" z="0.00" type="traffic_light" />
	<node id="3017389660" x="507052.26" y="8032828.69" z="0.00" type="priority" />
	<node id="3017389663" x="506958.19" y="8032747.12" z="0.00" type="priority" />
	<node id="3082006156" x="507213.05" y="8031904.89" z="0.00" type="priority" />
	<node id="3085396701" x="505956.68" y="8032873.40" z="0.00" type="traffic_light" />
	<node id="3085396702" x="505942.87" y="8032869.84" z="0.00" type="traffic_light" />
	<node id="3085396703" x="505959.65" y="8032861.40" z="0.00" type="traffic_light" />
	<node id="3085396704" x="505945.68" y="8032858.39" z="0.00" type="traffic_light" />
	<node id="3085396705" x="506183.08" y="8031977.66" z="0.00" type="traffic_light" />
	<node id="3086594827" x="506126.07" y="8033068.40" z="0.00" type="priority" />
	<node id="3086594828" x="507197.44" y="8033035.62" z="0.00" type="priority" />
	<node id="3086594829" x="507328.37" y="8033022.49" z="0.00" type="priority" />
	<node id="3086594830" x="505919.41" y="8033017.86" z="0.00" type="priority" />
	<node id="3086594831" x="507231.42" y="8032969.70" z="0.00" type="priority" />
	<node id="3086594832" x="505747.23" y="8032818.71" z="0.00" type="priority" />
	<node id="3086601534" x="505749.45" y="8032807.79" z="0.00" type="priority" />
	<node id="3086601541" x="506708.99" y="8032278.84" z="0.00" type="priority" />
	<node id="3086601542" x="506550.02" y="8032275.51" z="0.00" type="priority" />
	<node id="3086601543" x="506612.51" y="8032277.97" z="0.00" type="priority" />
	<node id="3086601544" x="506028.07" y="8032118.58" z="0.00" type="priority" />
	<node id="3247640578" x="510299.60" y="8033421.01" z="0.00" type="priority" />
	<node id="3247640582" x="510249.92" y="8033376.55" z="0.00" type="priority" />
	<node id="3291192264" x="505541.33" y="8032171.97" z="0.00" type="priority" />
	<node id="3291192280" x="505908.21" y="8032069.24" z="0.00" type="priority" />
	<node id="3383051853" x="506852.60" y="8031363.46" z="0.00" type="priority" />
	<node id="3561470654" x="505692.13" y="8033026.44" z="0.00" type="priority" />
	<node id="3561470656" x="505355.40" y="8032875.18" z="0.00" type="priority" />
	<node id="3561760936" x="507364.44" y="8032184.16" z="0.00" type="traffic_light" />
	<node id="3643067930" x="507267.34" y="8032381.71" z="0.00" type="traffic_light" />
	<node id="3643067932" x="507313.69" y="8032283.91" z="0.00" type="priority" />
	<node id="3795696109" x="506891.94" y="8032580.59" z="0.00" type="priority" />
	<node id="3849586233" x="506698.87" y="8032570.97" z="0.00" type="priority" />
	<node id="3849586234" x="506602.06" y="8032567.78" z="0.00" type="priority" />
	<node id="3990976610" x="508034.71" y="8032504.08" z="0.00" type="priority" />
	<node id="4252921818" x="506891.73" y="8032617.36" z="0.00" type="priority" />
	<node id="4252921819" x="506906.66" y="8032586.75" z="0.00" type="priority" />
	<node id="4252982359" x="505268.68" y="8032701.30" z="0.00" type="priority" />
	<node id="448777310" x="507412.38" y="8031812.39" z="0.00" type="priority" />
	<node id="448777314" x="509155.91" y="8033459.29" z="0.00" type="traffic_light" />
	<node id="448777321" x="507110.84" y="8032439.08" z="0.00" type="traffic_light" />
	<node id="448777345" x="509005.86" y="8033385.26" z="0.00" type="traffic_light" />
	<node id="448777352" x="508576.83" y="8033156.95" z="0.00" type="traffic_light" />
	<node id="448777360" x="508487.97" y="8032992.71" z="0.00" type="priority" />
	<node id="448777363" x="509161.65" y="8033449.06" z="0.00" type="traffic_light" />
	<node id="448777378" x="507346.46" y="8031950.67" z="0.00" type="priority" />
	<node id="448777386" x="507012.33" y="8032638.94" z="0.00" type="priority" />
	<node id="448777388" x="507745.54" y="8032080.81" z="0.00" type="priority" />
	<node id="448777407" x="507165.73" y="8032330.53" z="0.00" type="traffic_light" />
	<node id="448777409" x="508479.76" y="8032988.45" z="0.00" type="traffic_light" />
	<node id="448777411" x="508437.75" y="8033089.10" z="0.00" type="traffic_light" />
	<node id="448777417" x="507211.88" y="8032234.36" z="0.00" type="traffic_light" />
	<node id="448777418" x="509415.32" y="8033577.87" z="0.00" type="traffic_light" />
	<node id="448777427" x="509407.39" y="8033562.71" z="0.00" type="traffic_light" />
	<node id="448777430" x="507220.89" y="8032480.47" z="0.00" type="traffic_light" />
	<node id="448777439" x="506010.50" y="8031869.73" z="0.00" type="priority" />