<connections>
	<connection from="295752152_2995056930_2995056929" to="295752152_2995056929_2995056930" />
	<connection from="295752152_2995056930_2995056929" to="295752159_2995056929_3086601541" />
	<connection from="295752152_2995056930_2995056929" to="295752152_2995056929_2995056928" />
	<connection from="252381381_2728819558_2995056905" to="252381381_2995056905_2994721539" />
	<connection from="252381381_2728819558_2995056905" to="295752181_2995056905_2995056903" />
	<connection from="295692147_2994406011_2994406012" to="532818918_2994406012_2994406027" />
	<connection from="295692147_2994406011_2994406012" to="295692147_2994406012_2994406017" />
	<connection from="295692147_2994406011_2994406012" to="295692147_2994406012_2994406011" />
	<connection from="425973606_7746431765_2995185003" to="425973606_2995185003_2995185002" />
	<connection from="425973606_7746431765_2995185003" to="425973610_2995185003_2995185018" />
	<connection from="295692152_2994405939_2994405931" to="295692156_2994405931_2994405904" />
	<connection from="295692152_2994405939_2994405931" to="295692152_2994405931_2994405939" />
	<connection from="295692152_2994405939_2994405931" to="295692152_2994405931_2994405925" />
	<connection from="532818919_2994405836_2994405842" to="532818919_2994405842_2994405848" />
	<connection from="532818919_2994405836_2994405842" to="295692158_2994405842_2994405792" />
	<connection from="532818919_2994405836_2994405842" to="532818919_2994405842_2994405836" />
	<connection from="532818919_2994405836_2994405842" to="295692158_2994405842_2994405861" />
	<connection from="295758998_2995185029_2582684503" to="381792541_2582684503_2582684504" />
	<connection from="295752181_2995184980_2995184968" to="38132343_2995184968_2995184961" />
	<connection from="295752181_2995184980_2995184968" to="295752181_2995184968_2995184951" />
	<connection from="524186452_448777439_2988828174" to="524186452_2988828174_4690367398" />
	<connection from="532818919_2994405856_2994405849" to="532818919_2994405849_2994405848" />
	<connection from="532818919_2994405856_2994405849" to="350394082_2994405849_3561470654" />
	<connection from="532818919_2994405856_2994405849" to="532818919_2994405849_2994405856" />
	<connection from="532818919_2994405856_2994405849" to="295692154_2994405849_2994405868" />
	<connection from="295692146_2994405973_2994405992" to="295692146_2994405992_2994405973" />
	<connection from="295692146_2994405973_2994405992" to="295692146_2994405992_2994406013" />
	<connection from="295692146_2994405973_2994405992" to="295692160_2994405992_2994406001" />
	<connection from="295692146_2994405973_2994405992" to="295692160_2994405992_2994405986" />
	<connection from="295752119_3086601541_3086601543" to="295752119_3086601543_3086601542" />
	<connection from="295752119_3086601541_3086601543" to="295692192_3086601543_2995056930" />
	<connection from="295176818_2994406011_2994405989" to="295692145_2994405989_2994405983" />
	<connection from="295176818_2994406011_2994405989" to="295692145_2994405989_2994405990" />
	<connection from="295176818_2994406011_2994405989" to="295176818_2994405989_2994405971" />
	<connection from="38132318_7746431765_2995184996" to="425973610_2995184996_2995185003" />
	<connection from="38132318_7746431765_2995184996" to="38132318_2995184996_2995184991" />
	<connection from="295176699_2995056892_2988813847" to="267427064_2988813847_3017389649" />
	<connection from="295176699_2995056892_2988813847" to="295176699_2988813847_2988813846" />
	<connection from="295176699_2995056892_2988813847" to="295176699_2988813847_2995056892" />
	<connection from="295692147_2994406011_2994406005" to="295692147_2994406005_2994405995" />
	<connection from="295692147_2994406011_2994406005" to="295692155_2994406005_2994406020" />
	<connection from="295692147_2994406011_2994406005" to="295692147_2994406005_2994406011" />
	<connection from="295759030_2995184988_448777407" to="38132327_448777407_448777479" />
	<connection from="295759030_2995184988_448777407" to="295759030_448777407_2995184988" />
	<connection from="295759030_2995184988_448777407" to="38132343_448777407_3643067930" />
	<connection from="295692149_2994406037_2994406019" to="295692149_2994406019_2994406001" />
	<connection from="295692149_2994406037_2994406019" to="295692145_2994406019_2994406013" />
	<connection from="295692149_2994406037_2994406019" to="295692145_2994406019_2994406031" />
	<connection from="295692149_2994406037_2994406019" to="295692149_2994406019_2994406037" />
	<connection from="295692145_2994405990_2994405999" to="295692158_2994405999_2994405976" />
	<connection from="295692145_2994405990_2994405999" to="295692145_2994405999_2994405990" />
	<connection from="295692145_2994405990_2994405999" to="295692158_2994405999_2994406017" />
	<connection from="295692145_2994405990_2994405999" to="295692145_2994405999_2994406007" />
	<connection from="295692152_2994405939_2994405943" to="295692152_2994405943_2994405939" />
	<connection from="295692152_2994405939_2994405943" to="295176818_2994405943_2994405923" />
	<connection from="295692152_2994405939_2994405943" to="295692152_2994405943_2994405945" />
	<connection from="376139537_2728819564_2728819563" to="376284333_2728819563_2728819556" />
	<connection from="376139537_2728819564_2728819563" to="376139537_2728819563_2728819560" />
	<connection from="295692158_2994406032_2994406048" to="295692224_2994406048_2994406054" />
	<connection from="295692158_2994406032_2994406048" to="295692224_2994406048_2994406042" />
	<connection from="295692158_2994406032_2994406048" to="295692158_2994406048_2994406064" />
	<connection from="295692158_2994406032_2994406048" to="295692158_2994406048_2994406032" />
	<connection from="295759085_3561760936_2995184999" to="295759085_2995184999_7652685207" />
	<connection from="295759085_3561760936_2995184999" to="295759053_2995184999_2995185014" />
	<connection from="698817035_2994406003_6562206060" to="698817035_6562206060_2994406003" />
	<connection from="698817035_2994406003_6562206060" to="698817034_6562206060_6562206059" />
	<connection from="819465232_2994405888_4690367165" to="819465232_4690367165_2994405888" />
	<connection from="819465232_2994405888_4690367165" to="295692228_4690367165_7644051264" />
	<connection from="252125979_2582319192_2582319193" to="252125979_2582319193_2582319194" />
	<connection from="252125979_2582319192_2582319193" to="267427062_2582319193_2988839498" />
	<connection from="295692152_2994405959_2994405945" to="532818918_2994405945_2994405972" />
	<connection from="295692152_2994405959_2994405945" to="295692152_2994405945_2994405959" />
	<connection from="295692152_2994405959_2994405945" to="295692152_2994405945_2994405943" />
	<connection from="819443194_2995184943_8976864648" to="295758868_8976864648_2988839501" />
	<connection from="819443194_2995184943_8976864648" to="819443194_8976864648_2988839500" />
	<connection from="842518425_2994406051_2994406047" to="842518425_2994406047_2994406043" />
	<connection from="842518425_2994406051_2994406047" to="842518425_2994406047_2994406051" />
	<connection from="842518425_2994406051_2994406047" to="295692146_2994406047_2994406029" />
	<connection from="842518425_2994406051_2994406047" to="295692146_2994406047_8976876458" />
	<connection from="38132318_2995184984_2995184976" to="38132318_2995184976_448777479" />
	<connection from="38132318_2995184984_2995184976" to="379881171_2995184976_2995184988" />
	<connection from="295692145_2994405990_2994405989" to="295692145_2994405989_2994405983" />
	<connection from="295692145_2994405990_2994405989" to="295692145_2994405989_2994405990" />
	<connection from="295692145_2994405990_2994405989" to="295176818_2994405989_2994405971" />
	<connection from="295176701_2988813854_2995056903" to="295176701_2995056903_3086594831" />
	<connection from="295176701_2988813854_2995056903" to="295752181_2995056903_2995056898" />
	<connection from="477110391_2994405860_2994405839" to="477110391_2994405839_2994405837" />
	<connection from="477110391_2994405860_2994405839" to="475269744_2994405839_4690367414" />
	<connection from="477110391_2994405860_2994405839" to="477110391_2994405839_2994405860" />
	<connection from="295692141_2994405850_2994405867" to="295692151_2994405867_2994405860" />
	<connection from="295692141_2994405850_2994405867" to="295692151_2994405867_2994405873" />
	<connection from="295692141_2994405850_2994405867" to="295692141_2994405867_2994405888" />
	<connection from="295752164_2995056914_2995056921" to="295752164_2995056921_2995056914" />
	<connection from="295752164_2995056914_2995056921" to="295752164_2995056921_8347599130" />
	<connection from="295752164_2995056914_2995056921" to="295692142_2995056921_2995056922" />
	<connection from="376139537_448777386_2994721540" to="376139537_2994721540_2995056909" />
	<connection from="376139537_448777386_2994721540" to="295723352_2994721540_2994721541" />
	<connection from="295752164_2995056924_2995056928" to="295752164_2995056928_2995056931" />
	<connection from="295752164_2995056924_2995056928" to="295752164_2995056928_2995056924" />
	<connection from="295752164_2995056924_2995056928" to="295752152_2995056928_2995056929" />
	<connection from="295752164_2995056924_2995056928" to="295752152_2995056928_2995056927" />
	<connection from="524186463_4690367127_4690367172" to="524186459_4690367172_2994406075" />
	<connection from="295692228_4690367165_7644051264" to="818522663_7644051264_2994405919" />
	<connection from="295692228_4690367165_7644051264" to="295692228_7644051264_6562206226" />
	<connection from="819443194_2995184973_2582684508" to="819443194_2582684508_2995184980" />
	<connection from="295692223_2994406064_2994406056" to="295692223_2994406056_2994406064" />
	<connection from="295692223_2994406064_2994406056" to="532818918_2994406056_2994406069" />
	<connection from="295692223_2994406064_2994406056" to="295692223_2994406056_2994406055" />
	<connection from="295752127_6562206056_2995056924" to="295752164_2995056924_8347599130" />
	<connection from="295752127_6562206056_2995056924" to="295752164_2995056924_2995056928" />
	<connection from="295752127_6562206056_2995056924" to="295752127_2995056924_2995056925" />
	<connection from="295752127_6562206056_2995056924" to="295752127_2995056924_6562206056" />
	<connection from="834378961_7653298712_6562063824" to="834378961_6562063824_2995185257" />
	<connection from="295692158_2994405883_2994405902" to="295692151_2994405902_2994405894" />
	<connection from="295692158_2994405883_2994405902" to="295692151_2994405902_2994405914" />
	<connection from="295692158_2994405883_2994405902" to="295692158_2994405902_2994405929" />
	<connection from="295692158_2994405883_2994405902" to="295692158_2994405902_2994405883" />
	<connection from="295752164_2995184991_2995056931" to="295752164_2995056931_2995184991" />
	<connection from="295752164_2995184991_2995056931" to="295752164_2995056931_2995056928" />
	<connection from="295752164_2995184991_2995056931" to="318362183_2995056931_8976908311" />
	<connection from="38132327_2995185009_7652685206" to="819451311_7652685206_7652683580" />
	<connection from="38132327_2995185009_7652685206" to="38132327_7652685206_448777417" />
	<connection from="295176699_2995056892_2994721537" to="295723352_2994721537_2988813852" />
	<connection from="295176699_2995056892_2994721537" to="295176699_2994721537_2988813848" />
	<connection from="295176699_2995056892_2994721537" to="295176699_2994721537_2995056892" />
	<connection from="524186453_4690367172_4690367173" to="475269739_4690367173_7653023431" />
	<connection from="524186453_4690367172_4690367173" to="524186451_4690367173_4690367126" />
	<connection from="252125979_2728819567_2995056918" to="295752181_2995056918_2995056909" />
	<connection from="252125979_2728819567_2995056918" to="252125979_2995056918_2994721541" />
	<connection from="295692162_2994405852_2994405855" to="295692162_2994405855_2994405873" />
	<connection from="295692162_2994405852_2994405855" to="295692162_2994405855_2994405852" />
	<connection from="295692162_2994405852_2994405855" to="475269744_2994405855_2994405850" />
	<connection from="830495461_6562206217_2994406052" to="295692162_2994406052_2994406038" />
	<connection from="830495461_6562206217_2994406052" to="295692187_2994406052_2994406061" />
	<connection from="295692152_2994405959_2994405967" to="295692152_2994405967_2994405959" />
	<connection from="295692152_2994405959_2994405967" to="295692154_2994405967_2994405936" />
	<connection from="295692152_2994405959_2994405967" to="295692154_2994405967_2994405986" />
	<connection from="295692152_2994405959_2994405967" to="295692152_2994405967_2994405973" />
	<connection from="295692223_2994406064_2994406068" to="295692223_2994406068_2994406064" />
	<connection from="295692223_2994406064_2994406068" to="295692154_2994406068_2994406060" />
	<connection from="295692223_2994406064_2994406068" to="295692154_2994406068_8976876459" />
	<connection from="295752137_2995056916_2995056915" to="295752159_2995056915_3849586233" />
	<connection from="295752137_2995056916_2995056915" to="295752137_2995056915_2995056914" />
	<connection from="295752137_2995056916_2995056915" to="295752137_2995056915_2995056916" />
	<connection from="38132318_7737693582_7729751197" to="38132318_7729751197_448777427" />
	<connection from="295752147_2995184831_2995184820" to="295752147_2995184820_2995056907" />
	<connection from="295752147_2995184831_2995184820" to="38132318_2995184820_2995184815" />
	<connection from="295692158_2994406032_2994406017" to="295692147_2994406017_2994406023" />
	<connection from="295692158_2994406032_2994406017" to="295692147_2994406017_2994406012" />
	<connection from="295692158_2994406032_2994406017" to="295692158_2994406017_2994406032" />
	<connection from="295692158_2994406032_2994406017" to="295692158_2994406017_2994405999" />
	<connection from="295752164_2995056924_8347599130" to="295752164_8347599130_2995056924" />
	<connection from="295752164_2995056924_8347599130" to="295752164_8347599130_2995056921" />
	<connection from="295752164_2995056924_8347599130" to="897950820_8347599130_3795696109" />
	<connection from="295752181_448777449_2995056918" to="295752181_2995056918_2995056909" />
	<connection from="295752181_448777449_2995056918" to="252125979_2995056918_2994721541" />
	<connection from="252381381_2728819556_2728819558" to="252381381_2728819558_2995056905" />
	<connection from="252381381_2728819556_2728819558" to="267427064_2728819558_2728819564" />
	<connection from="830495461_2994406070_6562206217" to="830495461_6562206217_2994406052" />
	<connection from="830495461_2994406070_6562206217" to="698817051_6562206217_4690367170" />
	<connection from="524186451_4690367173_4690367126" to="38132318_4690367126_2995185012" />
	<connection from="295759031_2995185016_2995185017" to="295759031_2995185017_2995185018" />
	<connection from="295759031_2995185016_2995185017" to="425973607_2995185017_2995185002" />
	<connection from="295692192_2994406059_3086601543" to="295752119_3086601543_3086601542" />
	<connection from="295692192_2994406059_3086601543" to="295692192_3086601543_2995056930" />
	<connection from="295692154_2994406060_2994406068" to="295692223_2994406068_2994406064" />
	<connection from="295692154_2994406060_2994406068" to="295692154_2994406068_2994406060" />
	<connection from="295692154_2994406060_2994406068" to="295692154_2994406068_8976876459" />
	<connection from="295692158_2994406078_3086601544" to="295692158_3086601544_2994406064" />
	<connection from="295692158_2994406078_3086601544" to="295692176_3086601544_2994406069" />
	<connection from="295692158_2994406078_3086601544" to="295692158_3086601544_2994406078" />
	<connection from="295692158_2994406078_3086601544" to="295692176_3086601544_8976876459" />
	<connection from="830495461_2994406074_2994406070" to="830495461_2994406070_6562206217" />
	<connection from="830495461_2994406074_2994406070" to="295692156_2994406070_2994406061" />
	<connection from="295176699_2988813844_2988813845" to="295176699_2988813845_2988813844" />
	<connection from="295176699_2988813844_2988813845" to="267427062_2988813845_2988813850" />
	<connection from="295176699_2988813844_2988813845" to="295176699_2988813845_2988813846" />
	<connection from="295176701_3086594829_2988813853" to="267427062_2988813853_2584357131" />
	<connection from="295759017_2995185001_2995185016" to="295759017_2995185016_2995185001" />
	<connection from="295759017_2995185001_2995185016" to="295759031_2995185016_2995185017" />
	<connection from="295759017_2995185001_2995185016" to="295759017_2995185016_2995185030" />
	<connection from="295692162_2994406008_2994405988" to="295692147_2994405988_2994405995" />
	<connection from="295692162_2994406008_2994405988" to="295692147_2994405988_2994405984" />
	<connection from="295692162_2994406008_2994405988" to="295692162_2994405988_2994406008" />
	<connection from="295692162_2994406008_2994405988" to="295692162_2994405988_2994405969" />
	<connection from="295752119_8976908311_3086601541" to="295752159_3086601541_2995056933" />
	<connection from="295752119_8976908311_3086601541" to="295752119_3086601541_3086601543" />
	<connection from="819451311_7652673366_7652685205" to="819451311_7652685205_7652685206" />
	<connection from="819451311_7652673366_7652685205" to="350428867_7652685205_3561760936" />
	<connection from="295692162_2994405852_2994405833" to="295692162_2994405833_2994405809" />
	<connection from="295692162_2994405852_2994405833" to="295692150_2994405833_2994405840" />
	<connection from="295692162_2994405852_2994405833" to="295692150_2994405833_2994405830" />
	<connection from="295692162_2994405852_2994405833" to="295692162_2994405833_2994405852" />
	<connection from="38132318_2882415895_448777482" to="38132318_448777482_448777363" />
	<connection from="698817035_2994406003_2994406008" to="295692162_2994406008_2994406021" />
	<connection from="698817035_2994406003_2994406008" to="698817035_2994406008_2994406003" />
	<connection from="698817035_2994406003_2994406008" to="698817035_2994406008_2994406014" />
	<connection from="698817035_2994406003_2994406008" to="295692162_2994406008_2994405988" />
	<connection from="295723350_4252921818_3795696109" to="295723350_3795696109_2582319196" />
	<connection from="295723350_4252921818_3795696109" to="897950820_3795696109_4252921819" />
	<connection from="295723558_2988813848_4690367151" to="295723558_4690367151_8337809032" />
	<connection from="295723558_2988813848_4690367151" to="295723558_4690367151_2988813848" />
	<connection from="295692160_2994405971_2994405972" to="532818918_2994405972_2994405990" />
	<connection from="295692160_2994405971_2994405972" to="295692160_2994405972_2994405971" />
	<connection from="295692160_2994405971_2994405972" to="295692160_2994405972_2994405976" />
	<connection from="295692141_2994405867_2994405888" to="819465232_2994405888_2994405898" />
	<connection from="295692141_2994405867_2994405888" to="295692141_2994405888_2994405919" />
	<connection from="295692141_2994405867_2994405888" to="819465232_2994405888_4690367165" />
	<connection from="295176818_2994406025_2994406011" to="295176818_2994406011_2994405989" />
	<connection from="295176818_2994406025_2994406011" to="295692147_2994406011_2994406005" />
	<connection from="295176818_2994406025_2994406011" to="295692147_2994406011_2994406012" />
	<connection from="532818918_2994405945_2994405972" to="532818918_2994405972_2994405990" />
	<connection from="532818918_2994405945_2994405972" to="295692160_2994405972_2994405971" />
	<connection from="532818918_2994405945_2994405972" to="295692160_2994405972_2994405976" />
	<connection from="295758868_2995185006_2995185014" to="295758868_2995185014_2995185022" />
	<connection from="295758868_2995185006_2995185014" to="295759053_2995185014_2995185024" />
	<connection from="532818919_2994405856_2994405864" to="295692149_2994405864_2994405881" />
	<connection from="532818919_2994405856_2994405864" to="532818919_2994405864_3561470656" />
	<connection from="532818919_2994405856_2994405864" to="532818919_2994405864_2994405856" />
	<connection from="475269738_4690367127_3086601542" to="475269738_3086601542_4690367134" />
	<connection from="350428867_3643067932_7652685205" to="819451311_7652685205_7652685206" />
	<connection from="350428867_3643067932_7652685205" to="350428867_7652685205_3561760936" />
	<connection from="376284333_2995056917_2582319194" to="252125979_2582319194_2728819567" />
	<connection from="376284333_2995056917_2582319194" to="376284333_2582319194_2728819563" />
	<connection from="897433781_6562206226_2994405938" to="295692160_2994405938_2994405942" />
	<connection from="897433781_6562206226_2994405938" to="295692141_2994405938_2994405949" />
	<connection from="295692226_2994405848_2994405788" to="295692226_2994405788_2994405848" />
	<connection from="295692141_2994405888_2994405919" to="295692141_2994405919_2994405938" />
	<connection from="295692141_2994405888_2994405919" to="818522663_2994405919_7644051264" />
	<connection from="295692141_2994405888_2994405919" to="295692152_2994405919_2994405925" />
	<connection from="295692192_2995056930_2994405993" to="295752110_2994405993_4690367134" />
	<connection from="295692192_2995056930_2994405993" to="295692142_2994405993_2995056922" />
	<connection from="295692192_2995056930_2994405993" to="295692192_2994405993_3849586234" />
	<connection from="295692152_2994405919_2994405925" to="295692152_2994405925_2994405919" />
	<connection from="295692152_2994405919_2994405925" to="295692162_2994405925_2994405898" />
	<connection from="295692152_2994405919_2994405925" to="295692162_2994405925_2994405942" />
	<connection from="295692152_2994405919_2994405925" to="295692152_2994405925_2994405931" />
	<connection from="532818918_6562206221_2988828165" to="532818918_2988828165_2988828174" />
	<connection from="532818918_6562206221_2988828165" to="524186459_2988828165_448777494" />
	<connection from="295692149_2994405881_2994405901" to="295692149_2994405901_2994405881" />
	<connection from="295692149_2994405881_2994405901" to="295692149_2994405901_2994405903" />
	<connection from="295692149_2994405881_2994405901" to="475269743_2994405901_4252982359" />
	<connection from="295692160_2994405971_2994405966" to="295692160_2994405966_2994405971" />
	<connection from="295692160_2994405971_2994405966" to="295692160_2994405966_2994405952" />
	<connection from="295692160_2994405971_2994405966" to="295692155_2994405966_2994405983" />
	<connection from="295692176_8976876459_3086601544" to="295692158_3086601544_2994406064" />
	<connection from="295692176_8976876459_3086601544" to="295692176_3086601544_2994406069" />
	<connection from="295692176_8976876459_3086601544" to="295692158_3086601544_2994406078" />
	<connection from="295692176_8976876459_3086601544" to="295692176_3086601544_8976876459" />
	<connection from="475269742_4690367414_4690367420" to="475269738_4690367420_4690367151" />
	<connection from="267427062_2582319193_2988839498" to="318362183_2988839498_2995056917" />
	<connection from="267427062_2582319193_2988839498" to="267427062_2988839498_448777469" />
	<connection from="318362183_8976908311_2995056933" to="295752159_2995056933_2995184996" />
	<connection from="318362183_8976908311_2995056933" to="318362183_2995056933_2994406059" />
	<connection from="295692154_2994406060_2994406054" to="295692154_2994406054_2994406060" />
	<connection from="295692154_2994406060_2994406054" to="295692154_2994406054_2994406043" />
	<connection from="295692154_2994406060_2994406054" to="295692224_2994406054_2994406048" />
	<connection from="267427062_2988813853_2584357131" to="252381381_2584357131_2728819556" />
	<connection from="267427062_2988813853_2584357131" to="267427062_2584357131_2728819560" />
	<connection from="295692150_2994405868_2994405861" to="295692150_2994405861_2994405868" />
	<connection from="295692150_2994405868_2994405861" to="295692158_2994405861_2994405842" />
	<connection from="295692150_2994405868_2994405861" to="295692150_2994405861_2994405854" />
	<connection from="295692150_2994405868_2994405861" to="295692158_2994405861_2994405878" />
	<connection from="318362183_8353988254_2995056897" to="318362183_2995056897_2995056901" />
	<connection from="295692228_4690367170_4690367172" to="524186453_4690367172_4690367173" />
	<connection from="295692228_4690367170_4690367172" to="524186459_4690367172_2994406075" />
	<connection from="376284333_3086594829_2988813851" to="295176700_2988813851_3086594828" />
	<connection from="376284333_3086594829_2988813851" to="376284333_2988813851_2988813846" />
	<connection from="425963803_2995184980_7652685199" to="425963803_7652685199_7652685207" />
	<connection from="425963803_2995184980_7652685199" to="819451311_7652685199_8374553286" />
	<connection from="376284333_2995184936_2995056917" to="318362183_2995056917_2995056919" />
	<connection from="376284333_2995184936_2995056917" to="376284333_2995056917_2582319194" />
	<connection from="295759053_8374553286_2995184999" to="295759085_2995184999_7652685207" />
	<connection from="295759053_8374553286_2995184999" to="295759053_2995184999_2995185014" />
	<connection from="295692151_2994405902_2994405914" to="295692154_2994405914_3086601534" />
	<connection from="295692151_2994405902_2994405914" to="295692151_2994405914_2994405902" />
	<connection from="295692151_2994405902_2994405914" to="295692151_2994405914_2994405921" />
	<connection from="295692151_2994405902_2994405914" to="295692154_2994405914_2994405936" />
	<connection from="295692191_8976876458_2994406063" to="866419511_2994406063_8075665539" />
	<connection from="295692191_8976876458_2994406063" to="295692191_2994406063_8976876458" />
	<connection from="295692191_8976876458_2994406063" to="295692149_2994406063_2994406051" />
	<connection from="295752110_6562206059_4690367134" to="295752110_4690367134_6562206059" />
	<connection from="295752110_6562206059_4690367134" to="295752110_4690367134_2994405993" />
	<connection from="295752110_6562206059_4690367134" to="475269738_4690367134_4690367152" />
	<connection from="295692191_8976876458_2994406060" to="295692191_2994406060_8976876458" />
	<connection from="295692191_8976876458_2994406060" to="295692154_2994406060_2994406054" />
	<connection from="295692191_8976876458_2994406060" to="295692154_2994406060_2994406068" />
	<connection from="532818918_2994405894_2994405924" to="532818918_2994405924_2994405945" />
	<connection from="532818918_2994405894_2994405924" to="295692161_2994405924_2994405923" />
	<connection from="532818918_2994405894_2994405924" to="295692161_2994405924_2994405929" />
	<connection from="295692223_2994406068_2994406064" to="295692158_2994406064_2994406048" />
	<connection from="295692223_2994406068_2994406064" to="295692223_2994406064_2994406056" />
	<connection from="295692223_2994406068_2994406064" to="295692223_2994406064_2994406068" />
	<connection from="295692223_2994406068_2994406064" to="295692158_2994406064_3086601544" />
	<connection from="819443194_2582684508_2995184980" to="425963803_2995184980_7652685199" />
	<connection from="819443194_2582684508_2995184980" to="295752181_2995184980_2995184968" />
	<connection from="819443194_2582684508_2995184980" to="425963783_2995184980_3643067932" />
	<connection from="38132318_2669215293_2963613564" to="38132318_2963613564_3247640582" />
	<connection from="295692162_2994405855_2994405852" to="295692162_2994405852_2994405833" />
	<connection from="295692162_2994405855_2994405852" to="295692162_2994405852_2994405855" />
	<connection from="295692162_2994405855_2994405852" to="475269743_2994405852_2994405859" />
	<connection from="38132318_2995184951_2995184941" to="38132318_2995184941_2995184936" />
	<connection from="38132318_2995184951_2995184941" to="267427064_2995184941_2995184961" />
	<connection from="295692150_2994405861_2994405854" to="295692150_2994405854_2994405853" />
	<connection from="295692150_2994405861_2994405854" to="532818918_2994405854_3085396702" />
	<connection from="295692150_2994405861_2994405854" to="295692150_2994405854_2994405861" />
	<connection from="532818918_2994406072_6562206221" to="532818918_6562206221_2988828165" />
	<connection from="532818918_2994406072_6562206221" to="375076146_6562206221_2994406077" />
	<connection from="475269744_3086601534_2994405883" to="475269744_2994405883_3085396704" />
	<connection from="475269744_3086601534_2994405883" to="295692158_2994405883_2994405878" />
	<connection from="475269744_3086601534_2994405883" to="295692158_2994405883_2994405902" />
	<connection from="295692156_2994405859_2994405840" to="295692150_2994405840_2994405833" />
	<connection from="295692156_2994405859_2994405840" to="295692156_2994405840_3086594827" />
	<connection from="295692156_2994405859_2994405840" to="295692150_2994405840_2994405847" />
	<connection from="295692142_2994405993_2995056922" to="295692142_2995056922_2994405993" />
	<connection from="295692142_2994405993_2995056922" to="295692142_2995056922_2995056921" />
	<connection from="295692142_2994405993_2995056922" to="295752159_2995056922_2995056925" />
	<connection from="295759088_2995184987_2995184934" to="819443194_2995184934_2995184943" />
	<connection from="295759053_2995185024_2995185029" to="295758998_2995185029_2582684503" />
	<connection from="295759053_2995185024_2995185029" to="295759053_2995185029_6562063824" />
	<connection from="267427062_2988839498_448777469" to="267427062_448777469_2988839499" />
	<connection from="267427062_2988839498_448777469" to="38132318_448777469_2995184820" />
	<connection from="295759053_2995185014_2995185024" to="295759053_2995185024_2995185029" />
	<connection from="295759053_2995185014_2995185024" to="425963806_2995185024_2995185010" />
	<connection from="38132343_3643067930_2995184968" to="38132343_2995184968_2995184961" />
	<connection from="38132343_3643067930_2995184968" to="295752181_2995184968_2995184951" />