<?xml version="1.0" encoding="UTF-8"?>

<!-- generated on 2023-07-24 07:26:30 by Eclipse SUMO netconvert Version 1.14.1
<configuration xmlns:xsi="http://www.w3.org/2001/XMLSchema-instance" xsi:noNamespaceSchemaLocation="http://sumo.dlr.de/xsd/netconvertConfiguration.xsd">

    <input>
        <node-files value="/home/leonel/mosaic-22.1/bundle/target/scenarios/ScenarioGenerator/RioVerde/sumo/RioVerde.nod.xml"/>
        <edge-files value="/home/leonel/mosaic-22.1/bundle/target/scenarios/ScenarioGenerator/RioVerde/sumo/RioVerde.edg.xml"/>
        <connection-files value="/home/leonel/mosaic-22.1/bundle/target/scenarios/ScenarioGenerator/RioVerde/sumo/RioVerde.con.xml"/>
    </input>

    <output>
        <output-file value="/home/leonel/mosaic-22.1/bundle/target/scenarios/ScenarioGenerator/RioVerde/sumo/RioVerde.net.xml"/>
    </output>

</configuration>
-->

<net version="1.9" junctionCornerDetail="5" limitTurnSpeed="5.50" xmlns:xsi="http://www.w3.org/2001/XMLSchema-instance" xsi:noNamespaceSchemaLocation="http://sumo.dlr.de/xsd/net_file.xsd">

    <location netOffset="-504935.46,-8031283.69" convBoundary="0.00,0.00,5364.14,2594.07" origBoundary="504935.46,8031283.69,510299.60,8033877.76" projParameter="!"/>

    <edge id=":2536860298_0" function="internal">
        <lane id=":2536860298_0_0" index="0" speed="13.89" length="0.29" shape="3633.23,1889.91 3632.95,1889.77"/>
        <lane id=":2536860298_0_1" index="1" speed="13.89" length="0.29" shape="3634.63,1887.03 3634.39,1886.91"/>
    </edge>
    <edge id=":2582319192_0" function="internal">
        <lane id=":2582319192_0_0" index="0" speed="6.54" length="9.07" shape="2808.44,1599.61 2806.06,1598.89 2804.02,1599.10 2802.31,1600.24 2800.94,1602.31"/>
    </edge>
    <edge id=":2582319192_1" function="internal">
        <lane id=":2582319192_1_0" index="0" speed="13.89" length="14.44" shape="2808.44,1599.61 2795.35,1593.37"/>
        <lane id=":2582319192_1_1" index="1" speed="13.89" length="14.44" shape="2809.79,1596.71 2796.80,1590.52"/>
    </edge>
    <edge id=":2582319192_3" function="internal">
        <lane id=":2582319192_3_0" index="0" speed="8.33" length="14.47" shape="2807.23,1589.33 2800.94,1602.31"/>
        <lane id=":2582319192_3_1" index="1" speed="8.33" length="14.47" shape="2804.38,1587.88 2798.05,1600.94"/>
    </edge>
    <edge id=":2582319192_5" function="internal">
        <lane id=":2582319192_5_0" index="0" speed="6.54" length="9.15" shape="2804.38,1587.88 2802.92,1589.98 2801.18,1591.12 2799.14,1591.30 2796.80,1590.52"/>
    </edge>
    <edge id=":2582319193_0" function="internal">
        <lane id=":2582319193_0_0" index="0" speed="13.89" length="14.43" shape="2645.26,1517.04 2632.36,1510.62"/>
        <lane id=":2582319193_0_1" index="1" speed="13.89" length="14.43" shape="2646.71,1514.19 2633.78,1507.75"/>
    </edge>
    <edge id=":2582319193_2" function="internal">
        <lane id=":2582319193_2_0" index="0" speed="6.57" length="9.11" shape="2646.71,1514.19 2644.65,1512.75 2643.54,1511.01 2643.35,1508.96 2644.11,1506.61"/>
    </edge>
    <edge id=":2582319193_3" function="internal">
        <lane id=":2582319193_3_0" index="0" speed="6.53" length="9.05" shape="2634.93,1518.14 2635.69,1515.78 2635.51,1513.74 2634.40,1512.02 2632.36,1510.62"/>
        <lane id=":2582319193_3_1" index="1" speed="8.02" length="14.19" shape="2637.80,1519.54 2639.00,1515.84 2638.72,1512.64 2636.98,1509.94 2633.78,1507.75"/>
    </edge>
    <edge id=":2582319193_5" function="internal">
        <lane id=":2582319193_5_0" index="0" speed="11.11" length="14.85" shape="2637.80,1519.54 2639.25,1515.43 2639.52,1512.37 2639.79,1509.30 2641.24,1505.20"/>
    </edge>
    <edge id=":2582319194_0" function="internal">
        <lane id=":2582319194_0_0" index="0" speed="6.58" length="9.11" shape="2543.86,1466.88 2541.50,1466.11 2539.44,1466.26 2537.68,1467.35 2536.23,1469.38"/>
    </edge>
    <edge id=":2582319194_1" function="internal">
        <lane id=":2582319194_1_0" index="0" speed="13.89" length="14.32" shape="2543.86,1466.88 2531.03,1460.47"/>
        <lane id=":2582319194_1_1" index="1" speed="13.89" length="14.32" shape="2545.28,1464.01 2532.49,1457.63"/>
    </edge>
    <edge id=":2582319194_3" function="internal">
        <lane id=":2582319194_3_0" index="0" speed="13.89" length="14.34" shape="2542.83,1456.63 2536.23,1469.38"/>
        <lane id=":2582319194_3_1" index="1" speed="13.89" length="14.34" shape="2539.98,1455.18 2533.39,1467.90"/>
    </edge>
    <edge id=":2582319194_5" function="internal">
        <lane id=":2582319194_5_0" index="0" speed="6.49" length="4.03" shape="2539.98,1455.18 2538.56,1457.20 2537.24,1458.03"/>
    </edge>
    <edge id=":2582319194_6" function="internal">
        <lane id=":2582319194_6_0" index="0" speed="6.49" length="4.96" shape="2537.24,1458.03 2536.84,1458.28 2534.81,1458.43 2532.49,1457.63"/>
    </edge>
    <edge id=":2582319195_0" function="internal">
        <lane id=":2582319195_0_0" index="0" speed="6.49" length="9.03" shape="2134.02,1260.96 2131.66,1260.19 2129.63,1260.36 2127.92,1261.47 2126.54,1263.52"/>
    </edge>
    <edge id=":2582319195_1" function="internal">
        <lane id=":2582319195_1_0" index="0" speed="13.89" length="14.45" shape="2134.02,1260.96 2121.06,1254.62"/>
        <lane id=":2582319195_1_1" index="1" speed="13.89" length="14.45" shape="2135.43,1258.09 2122.44,1251.73"/>
    </edge>
    <edge id=":2582319195_3" function="internal">
        <lane id=":2582319195_3_0" index="0" speed="13.89" length="14.45" shape="2132.88,1250.56 2126.54,1263.52"/>
        <lane id=":2582319195_3_1" index="1" speed="13.89" length="14.45" shape="2130.02,1249.13 2123.66,1262.13"/>
    </edge>
    <edge id=":2582319195_5" function="internal">
        <lane id=":2582319195_5_0" index="0" speed="6.58" length="4.18" shape="2130.02,1249.13 2128.60,1251.17 2127.17,1252.08"/>
    </edge>
    <edge id=":2582319195_6" function="internal">
        <lane id=":2582319195_6_0" index="0" speed="6.58" length="4.91" shape="2127.17,1252.08 2126.86,1252.28 2124.81,1252.47 2122.44,1251.73"/>
    </edge>
    <edge id=":2582319196_0" function="internal">
        <lane id=":2582319196_0_0" index="0" speed="9.24" length="12.60" shape="1960.56,1178.80 1957.22,1176.90 1954.81,1174.75 1953.35,1172.33 1952.83,1169.67"/>
        <lane id=":2582319196_0_1" index="1" speed="7.90" length="9.03" shape="1961.90,1175.90 1959.36,1174.49 1957.53,1172.98 1956.42,1171.35 1956.03,1169.61"/>
    </edge>
    <edge id=":2582319196_2" function="internal">
        <lane id=":2582319196_2_0" index="0" speed="8.33" length="12.03" shape="1952.79,1181.65 1952.83,1169.67"/>
        <lane id=":2582319196_2_1" index="1" speed="8.33" length="12.03" shape="1955.99,1181.68 1956.03,1169.61"/>
    </edge>
    <edge id=":2582319197_0" function="internal">
        <lane id=":2582319197_0_0" index="0" speed="13.89" length="0.25" shape="3495.32,1820.53 3495.14,1820.44"/>
        <lane id=":2582319197_0_1" index="1" speed="13.89" length="0.25" shape="3496.76,1817.67 3496.49,1817.54"/>
    </edge>
    <edge id=":2582684503_0" function="internal">
        <lane id=":2582684503_0_0" index="0" speed="13.89" length="13.30" shape="2740.76,865.25 2730.95,874.17"/>
        <lane id=":2582684503_0_1" index="1" speed="13.89" length="13.30" shape="2738.62,862.87 2728.75,871.85"/>
    </edge>
    <edge id=":2582684503_2" function="internal">
        <lane id=":2582684503_2_0" index="0" speed="8.27" length="13.42" shape="2731.75,862.05 2733.47,865.40 2733.91,868.53 2733.07,871.46 2730.95,874.17"/>
        <lane id=":2582684503_2_1" index="1" speed="6.82" length="8.83" shape="2729.11,863.86 2730.28,866.10 2730.61,868.18 2730.10,870.09 2728.75,871.85"/>
    </edge>
    <edge id=":2582684504_0" function="internal">
        <lane id=":2582684504_0_0" index="0" speed="6.80" length="9.37" shape="2712.33,891.74 2710.75,893.72 2710.14,895.77 2710.49,897.88 2711.80,900.07"/>
    </edge>
    <edge id=":2582684504_1" function="internal">
        <lane id=":2582684504_1_0" index="0" speed="13.89" length="14.47" shape="2712.33,891.74 2702.01,901.76"/>
        <lane id=":2582684504_1_1" index="1" speed="13.89" length="14.47" shape="2710.14,889.41 2699.71,899.54"/>
    </edge>
    <edge id=":2582684504_3" function="internal">
        <lane id=":2582684504_3_0" index="0" speed="8.33" length="14.30" shape="2702.74,888.97 2711.80,900.07"/>
        <lane id=":2582684504_3_1" index="1" speed="8.33" length="14.30" shape="2700.28,891.02 2709.31,902.08"/>
    </edge>
    <edge id=":2582684504_5" function="internal">
        <lane id=":2582684504_5_0" index="0" speed="6.93" length="9.52" shape="2700.28,891.02 2701.58,893.15 2701.91,895.27 2701.29,897.41 2699.71,899.54"/>
    </edge>
    <edge id=":2582684505_0" function="internal">
        <lane id=":2582684505_0_0" index="0" speed="6.45" length="9.03" shape="2651.03,962.12 2649.20,960.44 2647.28,959.77 2645.27,960.10 2643.18,961.44"/>
        <lane id=":2582684505_0_1" index="1" speed="7.95" length="14.29" shape="2653.50,960.09 2650.60,957.43 2647.57,956.37 2644.40,956.90 2641.09,959.02"/>
    </edge>
    <edge id=":2582684505_2" function="internal">
        <lane id=":2582684505_2_0" index="0" speed="8.33" length="14.97" shape="2653.50,960.09 2650.37,957.03 2647.70,955.48 2644.99,953.98 2641.71,951.04"/>
    </edge>
    <edge id=":2582684505_3" function="internal">
        <lane id=":2582684505_3_0" index="0" speed="13.89" length="14.86" shape="2654.27,951.35 2651.14,954.51 2648.90,956.58 2646.58,958.56 2643.18,961.44"/>
        <lane id=":2582684505_3_1" index="1" speed="13.89" length="14.86" shape="2651.97,949.13 2648.90,952.23 2646.70,954.26 2644.42,956.19 2641.09,959.02"/>
    </edge>
    <edge id=":2582684505_5" function="internal">
        <lane id=":2582684505_5_0" index="0" speed="6.39" length="9.14" shape="2651.97,949.13 2649.99,950.66 2648.01,951.13 2646.05,950.55 2644.09,948.90"/>
    </edge>
    <edge id=":2582684508_0" function="internal">
        <lane id=":2582684508_0_0" index="0" speed="8.33" length="12.40" shape="2525.10,1075.07 2514.15,1069.24"/>
    </edge>
    <edge id=":2582684508_1" function="internal">
        <lane id=":2582684508_1_0" index="0" speed="8.11" length="10.84" shape="2524.30,1069.19 2522.34,1070.47 2519.99,1070.91 2517.26,1070.50 2514.15,1069.24"/>
    </edge>
    <edge id=":2584357089_0" function="internal">
        <lane id=":2584357089_0_0" index="0" speed="13.89" length="0.30" shape="3723.90,1934.15 3723.64,1934.02"/>
        <lane id=":2584357089_0_1" index="1" speed="13.89" length="0.30" shape="3725.31,1931.27 3725.04,1931.14"/>
    </edge>
    <edge id=":2584357131_0" function="internal">
        <lane id=":2584357131_0_0" index="0" speed="11.11" length="14.28" shape="2538.88,1730.13 2526.07,1723.73"/>
        <lane id=":2584357131_0_1" index="1" speed="11.11" length="14.28" shape="2540.27,1727.25 2527.52,1720.88"/>
    </edge>
    <edge id=":2584357131_2" function="internal">
        <lane id=":2584357131_2_0" index="0" speed="6.41" length="3.93" shape="2540.27,1727.25 2538.23,1725.89 2537.42,1724.65"/>
    </edge>
    <edge id=":2584357131_6" function="internal">
        <lane id=":2584357131_6_0" index="0" speed="6.41" length="4.95" shape="2537.42,1724.65 2537.13,1724.21 2536.98,1722.22 2537.76,1719.92"/>
    </edge>
    <edge id=":2584357131_3" function="internal">
        <lane id=":2584357131_3_0" index="0" speed="6.61" length="9.14" shape="2528.69,1731.36 2529.42,1728.98 2529.23,1726.91 2528.12,1725.16 2526.07,1723.73"/>
    </edge>
    <edge id=":2584357131_4" function="internal">
        <lane id=":2584357131_4_0" index="0" speed="11.11" length="14.27" shape="2528.69,1731.36 2534.91,1718.47"/>
        <lane id=":2584357131_4_1" index="1" speed="11.11" length="14.27" shape="2531.58,1732.73 2537.76,1719.92"/>
    </edge>
    <edge id=":2584357136_0" function="internal">
        <lane id=":2584357136_0_0" index="0" speed="6.49" length="9.14" shape="1959.03,1446.87 1958.65,1444.36 1957.57,1442.59 1955.80,1441.57 1953.33,1441.30"/>
        <lane id=":2584357136_0_1" index="1" speed="7.99" length="14.39" shape="1962.23,1446.84 1961.63,1442.90 1959.93,1440.13 1957.12,1438.53 1953.22,1438.10"/>
    </edge>
    <edge id=":2584357136_2" function="internal">
        <lane id=":2584357136_2_0" index="0" speed="8.33" length="15.05" shape="1962.23,1446.84 1961.69,1442.46 1960.57,1439.57 1959.41,1436.67 1958.77,1432.30"/>
    </edge>
    <edge id=":2584357136_3" function="internal">
        <lane id=":2584357136_3_0" index="0" speed="9.72" length="15.42" shape="1968.07,1442.41 1963.82,1441.32 1960.81,1440.98 1957.75,1441.07 1953.33,1441.30"/>
        <lane id=":2584357136_3_1" index="1" speed="9.72" length="15.42" shape="1968.97,1439.34 1964.42,1438.17 1961.21,1437.78 1957.94,1437.86 1953.22,1438.10"/>
    </edge>
    <edge id=":2584357136_5" function="internal">
        <lane id=":2584357136_5_0" index="0" speed="8.01" length="10.74" shape="1968.97,1439.34 1965.98,1438.14 1963.81,1436.55 1962.47,1434.56 1961.96,1432.18"/>
    </edge>
    <edge id=":2584364559_0" function="internal">
        <lane id=":2584364559_0_0" index="0" speed="13.89" length="0.29" shape="3734.26,1912.65 3734.54,1912.78"/>
        <lane id=":2584364559_0_1" index="1" speed="13.89" length="0.29" shape="3732.88,1915.53 3733.12,1915.65"/>
    </edge>
    <edge id=":2669215277_0" function="internal">
        <lane id=":2669215277_0_0" index="0" speed="13.89" length="0.10" shape="4851.32,2236.72 4851.18,2236.75"/>
        <lane id=":2669215277_0_1" index="1" speed="13.89" length="0.10" shape="4850.68,2233.59 4850.63,2233.60"/>
    </edge>
    <edge id=":2669215278_0" function="internal">
        <lane id=":2669215278_0_0" index="0" speed="13.89" length="0.30" shape="4757.86,2252.97 4757.56,2253.03"/>
        <lane id=":2669215278_0_1" index="1" speed="13.89" length="0.30" shape="4757.31,2249.82 4757.02,2249.87"/>
    </edge>
    <edge id=":2669215292_0" function="internal">
        <lane id=":2669215292_0_0" index="0" speed="13.89" length="0.25" shape="4945.93,2217.32 4945.72,2217.36"/>
        <lane id=":2669215292_0_1" index="1" speed="13.89" length="0.25" shape="4945.38,2214.17 4945.08,2214.22"/>
    </edge>
    <edge id=":2669215293_0" function="internal">
        <lane id=":2669215293_0_0" index="0" speed="13.89" length="0.29" shape="4941.27,2197.93 4941.53,2197.88"/>
        <lane id=":2669215293_0_1" index="1" speed="13.89" length="0.29" shape="4941.84,2201.08 4942.15,2201.02"/>
    </edge>
    <edge id=":2669215298_0" function="internal">
        <lane id=":2669215298_0_0" index="0" speed="13.89" length="0.29" shape="4848.23,2214.79 4848.50,2214.75"/>
        <lane id=":2669215298_0_1" index="1" speed="13.89" length="0.29" shape="4848.76,2217.95 4849.07,2217.90"/>
    </edge>
    <edge id=":2669215304_0" function="internal">
        <lane id=":2669215304_0_0" index="0" speed="13.89" length="0.28" shape="4753.92,2230.58 4754.17,2230.54"/>
        <lane id=":2669215304_0_1" index="1" speed="13.89" length="0.28" shape="4754.39,2233.74 4754.69,2233.69"/>
    </edge>
    <edge id=":2728819556_0" function="internal">
        <lane id=":2728819556_0_0" index="0" speed="6.56" length="9.09" shape="2436.63,1678.32 2434.28,1677.52 2432.22,1677.65 2430.47,1678.73 2429.01,1680.74"/>
        <lane id=":2728819556_0_1" index="1" speed="8.05" length="14.19" shape="2438.08,1675.47 2434.41,1674.22 2431.20,1674.43 2428.46,1676.11 2426.18,1679.25"/>
    </edge>
    <edge id=":2728819556_2" function="internal">
        <lane id=":2728819556_2_0" index="0" speed="11.11" length="14.85" shape="2438.08,1675.47 2434.00,1673.95 2430.95,1673.63 2427.89,1673.32 2423.80,1671.83"/>
    </edge>
    <edge id=":2728819556_3" function="internal">
        <lane id=":2728819556_3_0" index="0" speed="13.89" length="14.36" shape="2435.64,1667.95 2429.01,1680.74"/>
        <lane id=":2728819556_3_1" index="1" speed="13.89" length="14.36" shape="2432.77,1666.54 2426.18,1679.25"/>
    </edge>
    <edge id=":2728819556_5" function="internal">
        <lane id=":2728819556_5_0" index="0" speed="6.50" length="9.04" shape="2432.77,1666.54 2431.38,1668.55 2429.66,1669.63 2427.61,1669.77 2425.23,1668.97"/>
    </edge>
    <edge id=":2728819558_0" function="internal">
        <lane id=":2728819558_0_0" index="0" speed="11.11" length="14.60" shape="2332.20,1625.99 2319.07,1619.67"/>
        <lane id=":2728819558_0_1" index="1" speed="11.11" length="14.60" shape="2333.63,1623.13 2320.44,1616.78"/>
    </edge>
    <edge id=":2728819558_2" function="internal">
        <lane id=":2728819558_2_0" index="0" speed="6.51" length="9.03" shape="2333.63,1623.13 2331.60,1621.72 2330.50,1620.00 2330.34,1617.96 2331.12,1615.62"/>
    </edge>
    <edge id=":2728819558_3" function="internal">
        <lane id=":2728819558_3_0" index="0" speed="6.42" length="9.04" shape="2321.55,1627.12 2322.39,1624.77 2322.25,1622.75 2321.15,1621.05 2319.07,1619.67"/>
        <lane id=":2728819558_3_1" index="1" speed="7.93" length="14.35" shape="2324.38,1628.61 2325.71,1624.88 2325.49,1621.67 2323.74,1618.97 2320.44,1616.78"/>
    </edge>
    <edge id=":2728819558_5" function="internal">
        <lane id=":2728819558_5_0" index="0" speed="8.33" length="15.04" shape="2324.38,1628.61 2325.99,1624.51 2326.38,1621.43 2326.74,1618.33 2328.26,1614.19"/>
    </edge>
    <edge id=":2728819560_0" function="internal">
        <lane id=":2728819560_0_0" index="0" speed="6.53" length="9.06" shape="2585.73,1606.28 2588.09,1607.02 2590.13,1606.84 2591.85,1605.72 2593.24,1603.66"/>
    </edge>
    <edge id=":2728819560_1" function="internal">
        <lane id=":2728819560_1_0" index="0" speed="13.89" length="14.43" shape="2585.73,1606.28 2598.73,1612.62"/>
        <lane id=":2728819560_1_1" index="1" speed="13.89" length="14.43" shape="2584.34,1609.17 2597.28,1615.47"/>
    </edge>
    <edge id=":2728819560_3" function="internal">
        <lane id=":2728819560_3_0" index="0" speed="11.11" length="14.45" shape="2586.86,1616.59 2593.24,1603.66"/>
        <lane id=":2728819560_3_1" index="1" speed="11.11" length="14.45" shape="2589.71,1618.04 2596.12,1605.06"/>
    </edge>
    <edge id=":2728819560_5" function="internal">
        <lane id=":2728819560_5_0" index="0" speed="6.53" length="9.12" shape="2589.71,1618.04 2591.16,1615.97 2592.90,1614.85 2594.94,1614.68 2597.28,1615.47"/>
    </edge>
    <edge id=":2728819563_0" function="internal">
        <lane id=":2728819563_0_0" index="0" speed="6.43" length="9.03" shape="2491.63,1554.96 2490.81,1557.31 2490.95,1559.33 2492.05,1561.04 2494.12,1562.42"/>
    </edge>
    <edge id=":2728819563_1" function="internal">
        <lane id=":2728819563_1_0" index="0" speed="13.89" length="14.55" shape="2491.63,1554.96 2485.01,1567.87"/>
        <lane id=":2728819563_1_1" index="1" speed="13.89" length="14.55" shape="2488.80,1553.48 2482.14,1566.46"/>
    </edge>
    <edge id=":2728819563_3" function="internal">
        <lane id=":2728819563_3_0" index="0" speed="13.89" length="14.54" shape="2481.15,1556.01 2494.12,1562.42"/>
        <lane id=":2728819563_3_1" index="1" speed="13.89" length="14.54" shape="2479.64,1558.84 2492.74,1565.30"/>
    </edge>
    <edge id=":2728819563_5" function="internal">
        <lane id=":2728819563_5_0" index="0" speed="6.59" length="4.21" shape="2479.64,1558.84 2481.65,1560.30 2482.56,1561.77"/>
    </edge>
    <edge id=":2728819563_6" function="internal">
        <lane id=":2728819563_6_0" index="0" speed="6.59" length="4.86" shape="2482.56,1561.77 2482.74,1562.06 2482.90,1564.11 2482.14,1566.46"/>
    </edge>
    <edge id=":2728819564_0" function="internal">
        <lane id=":2728819564_0_0" index="0" speed="6.50" length="9.03" shape="2378.20,1501.48 2380.55,1502.25 2382.59,1502.09 2384.30,1500.99 2385.70,1498.95"/>
    </edge>
    <edge id=":2728819564_1" function="internal">
        <lane id=":2728819564_1_0" index="0" speed="13.89" length="14.50" shape="2378.20,1501.48 2391.18,1508.06"/>
        <lane id=":2728819564_1_1" index="1" speed="13.89" length="14.50" shape="2376.78,1504.34 2389.67,1510.88"/>
    </edge>
    <edge id=":2728819564_3" function="internal">
        <lane id=":2728819564_3_0" index="0" speed="8.33" length="14.41" shape="2379.31,1511.85 2385.70,1498.95"/>
        <lane id=":2728819564_3_1" index="1" speed="8.33" length="14.41" shape="2382.17,1513.28 2388.57,1500.37"/>
    </edge>
    <edge id=":2728819564_5" function="internal">
        <lane id=":2728819564_5_0" index="0" speed="6.45" length="9.04" shape="2382.17,1513.28 2383.58,1511.24 2385.31,1510.15 2387.34,1510.03 2389.67,1510.88"/>
    </edge>
    <edge id=":2728819567_0" function="internal">
        <lane id=":2728819567_0_0" index="0" speed="13.89" length="14.39" shape="2438.11,1412.76 2425.31,1406.20"/>
        <lane id=":2728819567_0_1" index="1" speed="13.89" length="14.39" shape="2439.58,1409.91 2426.77,1403.36"/>
    </edge>
    <edge id=":2728819567_2" function="internal">
        <lane id=":2728819567_2_0" index="0" speed="6.53" length="9.05" shape="2439.58,1409.91 2437.54,1408.47 2436.45,1406.74 2436.29,1404.70 2437.08,1402.37"/>
    </edge>
    <edge id=":2728819567_3" function="internal">
        <lane id=":2728819567_3_0" index="0" speed="6.55" length="9.08" shape="2427.82,1413.79 2428.60,1411.43 2428.44,1409.38 2427.34,1407.64 2425.31,1406.20"/>
        <lane id=":2728819567_3_1" index="1" speed="8.04" length="14.19" shape="2430.69,1415.21 2431.90,1411.52 2431.65,1408.31 2429.94,1405.59 2426.77,1403.36"/>
    </edge>
    <edge id=":2728819567_5" function="internal">
        <lane id=":2728819567_5_0" index="0" speed="8.33" length="14.83" shape="2430.69,1415.21 2432.15,1411.12 2432.43,1408.06 2432.73,1405.00 2434.22,1400.92"/>
    </edge>
    <edge id=":2882415894_0" function="internal">
        <lane id=":2882415894_0_0" index="0" speed="13.89" length="0.17" shape="3971.80,2059.55 3971.57,2059.44"/>
        <lane id=":2882415894_0_1" index="1" speed="13.89" length="0.17" shape="3973.17,2056.66 3973.09,2056.62"/>
    </edge>
    <edge id=":2882415895_0" function="internal">
        <lane id=":2882415895_0_0" index="0" speed="13.89" length="0.29" shape="3982.68,2037.99 3982.92,2038.11"/>
        <lane id=":2882415895_0_1" index="1" speed="13.89" length="0.29" shape="3981.23,2040.84 3981.51,2040.98"/>
    </edge>
    <edge id=":2963613562_0" function="internal">
        <lane id=":2963613562_0_0" index="0" speed="13.89" length="0.29" shape="5131.97,2185.34 5131.67,2185.39"/>
        <lane id=":2963613562_0_1" index="1" speed="13.89" length="0.29" shape="5131.40,2182.19 5131.13,2182.24"/>
    </edge>
    <edge id=":2963613564_0" function="internal">
        <lane id=":2963613564_0_0" index="0" speed="13.89" length="0.26" shape="5128.03,2163.50 5128.25,2163.46"/>
        <lane id=":2963613564_0_1" index="1" speed="13.89" length="0.26" shape="5128.58,2166.65 5128.88,2166.60"/>
    </edge>
    <edge id=":2963852932_0" function="internal">
        <lane id=":2963852932_0_0" index="0" speed="13.89" length="0.10" shape="3392.91,2012.88 3393.01,2012.94"/>
        <lane id=":2963852932_0_1" index="1" speed="13.89" length="0.10" shape="3391.54,2015.77 3391.57,2015.79"/>
    </edge>
    <edge id=":2988813844_0" function="internal">
        <lane id=":2988813844_0_0" index="0" speed="3.65" length="4.67" shape="2720.89,1920.76 2722.21,1921.34 2722.75,1922.06 2722.49,1922.92 2721.45,1923.92"/>
    </edge>
    <edge id=":2988813845_0" function="internal">
        <lane id=":2988813845_0_0" index="0" speed="8.33" length="17.19" shape="2427.69,1970.47 2423.66,1970.44 2419.29,1969.46 2415.02,1967.89 2411.30,1966.09"/>
    </edge>
    <edge id=":2988813845_1" function="internal">
        <lane id=":2988813845_1_0" index="0" speed="6.56" length="13.36" shape="2427.69,1970.47 2424.02,1970.46 2422.06,1969.04 2421.82,1966.23 2423.28,1962.02"/>
    </edge>
    <edge id=":2988813845_2" function="internal">
        <lane id=":2988813845_2_0" index="0" speed="3.65" length="4.67" shape="2427.69,1970.47 2426.39,1969.86 2425.87,1969.13 2426.15,1968.28 2427.21,1967.30"/>
    </edge>
    <edge id=":2988813845_3" function="internal">
        <lane id=":2988813845_3_0" index="0" speed="6.44" length="9.24" shape="2412.85,1963.28 2415.19,1964.15 2417.23,1964.00 2418.96,1962.84 2420.39,1960.66"/>
    </edge>
    <edge id=":2988813845_4" function="internal">
        <lane id=":2988813845_4_0" index="0" speed="8.33" length="15.17" shape="2412.85,1963.28 2416.25,1965.04 2419.82,1966.48 2423.50,1967.33 2427.21,1967.30"/>
    </edge>
    <edge id=":2988813845_5" function="internal">
        <lane id=":2988813845_5_0" index="0" speed="3.65" length="4.67" shape="2412.85,1963.28 2413.51,1964.56 2413.48,1965.46 2412.74,1965.96 2411.30,1966.09"/>
    </edge>
    <edge id=":2988813845_6" function="internal">
        <lane id=":2988813845_6_0" index="0" speed="6.89" length="10.03" shape="2413.45,1974.67 2414.43,1971.97 2414.40,1969.65 2413.36,1967.68 2411.30,1966.09"/>
    </edge>
    <edge id=":2988813845_7" function="internal">
        <lane id=":2988813845_7_0" index="0" speed="11.11" length="15.69" shape="2413.45,1974.67 2420.39,1960.66"/>
        <lane id=":2988813845_7_1" index="1" speed="11.11" length="15.69" shape="2416.30,1976.14 2423.28,1962.02"/>
    </edge>
    <edge id=":2988813845_9" function="internal">
        <lane id=":2988813845_9_0" index="0" speed="9.72" length="14.58" shape="2416.30,1976.14 2418.49,1972.67 2421.04,1970.04 2423.95,1968.25 2427.21,1967.30"/>
    </edge>
    <edge id=":2988813846_0" function="internal">
        <lane id=":2988813846_0_0" index="0" speed="8.33" length="13.90" shape="2318.51,1914.91 2306.31,1908.27"/>
    </edge>
    <edge id=":2988813846_1" function="internal">
        <lane id=":2988813846_1_0" index="0" speed="3.65" length="4.67" shape="2318.51,1914.91 2317.85,1913.63 2317.89,1912.74 2318.62,1912.23 2320.06,1912.11"/>
    </edge>
    <edge id=":2988813846_2" function="internal">
        <lane id=":2988813846_2_0" index="0" speed="6.61" length="8.96" shape="2317.87,1904.46 2317.09,1906.85 2317.19,1908.92 2318.18,1910.67 2320.06,1912.11"/>
    </edge>
    <edge id=":2988813846_3" function="internal">
        <lane id=":2988813846_3_0" index="0" speed="7.16" length="11.46" shape="2314.99,1903.07 2313.04,1906.32 2310.94,1908.26 2308.70,1908.91 2306.31,1908.27"/>
    </edge>
    <edge id=":2988813846_4" function="internal">
        <lane id=":2988813846_4_0" index="0" speed="8.33" length="13.96" shape="2307.80,1905.43 2320.06,1912.11"/>
    </edge>
    <edge id=":2988813846_5" function="internal">
        <lane id=":2988813846_5_0" index="0" speed="3.65" length="4.67" shape="2307.80,1905.43 2308.49,1906.70 2308.47,1907.60 2307.75,1908.12 2306.31,1908.27"/>
    </edge>
    <edge id=":2988813847_0" function="internal">
        <lane id=":2988813847_0_0" index="0" speed="8.33" length="14.73" shape="2213.07,1859.10 2200.16,1852.00"/>
    </edge>
    <edge id=":2988813847_1" function="internal">
        <lane id=":2988813847_1_0" index="0" speed="7.52" length="12.14" shape="2213.07,1859.10 2211.13,1857.43 2210.31,1855.08 2210.62,1852.02 2212.06,1848.28"/>
    </edge>
    <edge id=":2988813847_2" function="internal">
        <lane id=":2988813847_2_0" index="0" speed="3.65" length="4.67" shape="2213.07,1859.10 2212.38,1857.83 2212.40,1856.94 2213.13,1856.42 2214.56,1856.27"/>
    </edge>
    <edge id=":2988813847_3" function="internal">
        <lane id=":2988813847_3_0" index="0" speed="6.39" length="9.04" shape="2201.72,1849.21 2204.05,1850.10 2206.07,1850.01 2207.78,1848.93 2209.19,1846.87"/>
    </edge>
    <edge id=":2988813847_4" function="internal">
        <lane id=":2988813847_4_0" index="0" speed="8.33" length="14.65" shape="2201.72,1849.21 2214.56,1856.27"/>
    </edge>
    <edge id=":2988813847_5" function="internal">
        <lane id=":2988813847_5_0" index="0" speed="3.65" length="4.67" shape="2201.72,1849.21 2202.38,1850.49 2202.34,1851.38 2201.60,1851.89 2200.16,1852.00"/>
    </edge>
    <edge id=":2988813847_6" function="internal">
        <lane id=":2988813847_6_0" index="0" speed="6.84" length="9.63" shape="2202.72,1860.16 2203.52,1857.66 2203.36,1855.47 2202.24,1853.58 2200.16,1852.00"/>
    </edge>
    <edge id=":2988813847_7" function="internal">
        <lane id=":2988813847_7_0" index="0" speed="8.33" length="14.77" shape="2202.72,1860.16 2209.19,1846.87"/>
        <lane id=":2988813847_7_1" index="1" speed="8.33" length="14.77" shape="2205.60,1861.55 2212.06,1848.28"/>
    </edge>
    <edge id=":2988813847_9" function="internal">
        <lane id=":2988813847_9_0" index="0" speed="7.26" length="11.79" shape="2205.60,1861.55 2207.61,1858.23 2209.77,1856.25 2212.09,1855.59 2214.56,1856.27"/>
    </edge>
    <edge id=":2988813848_0" function="internal">
        <lane id=":2988813848_0_0" index="0" speed="6.54" length="9.07" shape="1914.77,1703.11 1912.39,1702.39 1910.34,1702.59 1908.63,1703.72 1907.27,1705.79"/>
    </edge>
    <edge id=":2988813848_1" function="internal">
        <lane id=":2988813848_1_0" index="0" speed="7.98" length="14.23" shape="1914.77,1703.11 1911.50,1700.98 1909.71,1698.32 1909.40,1695.12 1910.56,1691.39"/>
    </edge>
    <edge id=":2988813848_2" function="internal">
        <lane id=":2988813848_2_0" index="0" speed="3.65" length="4.67" shape="1914.77,1703.11 1914.02,1701.88 1914.00,1700.99 1914.70,1700.43 1916.12,1700.21"/>
    </edge>
    <edge id=":2988813848_3" function="internal">
        <lane id=":2988813848_3_0" index="0" speed="6.48" length="9.03" shape="1913.45,1692.77 1912.71,1695.14 1912.91,1697.17 1914.05,1698.86 1916.12,1700.21"/>
    </edge>
    <edge id=":2988813848_4" function="internal">
        <lane id=":2988813848_4_0" index="0" speed="13.89" length="14.41" shape="1913.45,1692.77 1907.27,1705.79"/>
    </edge>
    <edge id=":2988813848_5" function="internal">