<edges>
	<edge id="295752152_2995056930_2995056929" from="2995056930" to="2995056929" numLanes="1" shape="506609.79,8032364.26,0.00 506705.53,8032368.42,0.00" speed="8.33" />
	<edge id="252381381_2728819558_2995056905" from="2728819558" to="2995056905" numLanes="2" shape="507266.23,8032903.60,0.00 507165.98,8032856.03,0.00" speed="11.11" />
	<edge id="295692147_2994406011_2994406012" from="2994406011" to="2994406012" numLanes="1" shape="506078.25,8032397.62,0.00 506068.20,8032394.48,0.00" speed="8.33" />
	<edge id="425973606_7746431765_2995185003" from="7746431765" to="2995185003" numLanes="2" shape="506622.00,8032180.77,0.00 506697.85,8032182.25,0.00 506712.12,8032182.70,0.00" speed="8.33" />
	<edge id="295692152_2994405939_2994405931" from="2994405939" to="2994405931" numLanes="1" shape="506122.40,8032640.28,0.00 506226.71,8032668.49,0.00" speed="8.33" />
	<edge id="532818919_2994405836_2994405842" from="2994405836" to="2994405842" numLanes="1" shape="505908.75,8033014.95,0.00 505812.21,8032989.29,0.00" speed="8.33" />
	<edge id="295758998_2995185029_2582684503" from="2995185029" to="2582684503" numLanes="2" shape="507544.89,8031975.78,0.00 507665.66,8032151.97,0.00" speed="8.33" />
	<edge id="295752181_2995184980_2995184968" from="2995184980" to="2995184968" numLanes="2" shape="507420.75,8032336.48,0.00 507371.61,8032432.93,0.00" speed="8.33" />
	<edge id="524186452_448777439_2988828174" from="448777439" to="2988828174" numLanes="2" shape="506010.50,8031869.73,0.00 506019.41,8031874.21,0.00 506028.44,8031881.75,0.00 506167.95,8031953.52,0.00 506177.67,8031959.27,0.00" speed="13.89" />
	<edge id="532818919_2994405856_2994405849" from="2994405856" to="2994405849" numLanes="1" shape="505608.80,8032937.93,0.00 505708.53,8032964.17,0.00" speed="8.33" />
	<edge id="295692146_2994405973_2994405992" from="2994405973" to="2994405992" numLanes="1" shape="505710.99,8032538.45,0.00 505730.15,8032464.35,0.00" speed="8.33" />
	<edge id="295752119_3086601541_3086601543" from="3086601541" to="3086601543" numLanes="2" shape="506708.99,8032278.84,0.00 506612.51,8032277.97,0.00" speed="8.33" />
	<edge id="295176818_2994406011_2994405989" from="2994406011" to="2994405989" numLanes="2" shape="506078.25,8032397.62,0.00 506058.01,8032470.17,0.00" speed="13.89" />
	<edge id="38132318_7746431765_2995184996" from="7746431765" to="2995184996" numLanes="2" shape="506622.00,8032180.77,0.00 506710.64,8032225.34,0.00" speed="13.89" />
	<edge id="295176699_2995056892_2988813847" from="2995056892" to="2988813847" numLanes="1" shape="507051.07,8033086.58,0.00 507145.64,8033139.46,0.00" speed="8.33" />
	<edge id="295692147_2994406011_2994406005" from="2994406011" to="2994406005" numLanes="1" shape="506078.25,8032397.62,0.00 506177.99,8032422.77,0.00" speed="8.33" />
	<edge id="295759030_2995184988_448777407" from="2995184988" to="448777407" numLanes="1" shape="507060.65,8032276.74,0.00 507165.73,8032330.53,0.00" speed="8.33" />
	<edge id="295692149_2994406037_2994406019" from="2994406037" to="2994406019" numLanes="1" shape="505659.22,8032291.35,0.00 505643.85,8032364.49,0.00" speed="8.33" />
	<edge id="295692145_2994405990_2994405999" from="2994405990" to="2994405999" numLanes="1" shape="506046.24,8032467.59,0.00 505948.24,8032443.77,0.00" speed="8.33" />
	<edge id="295692152_2994405939_2994405943" from="2994405939" to="2994405943" numLanes="1" shape="506122.40,8032640.28,0.00 506021.16,8032615.35,0.00" speed="8.33" />
	<edge id="376139537_2728819564_2728819563" from="2728819564" to="2728819563" numLanes="2" shape="507320.85,8032794.10,0.00 507417.93,8032845.85,0.00" speed="13.89" />
	<edge id="295692158_2994406032_2994406048" from="2994406032" to="2994406048" numLanes="1" shape="505981.93,8032306.63,0.00 505997.97,8032243.41,0.00" speed="8.33" />
	<edge id="295759085_3561760936_2995184999" from="3561760936" to="2995184999" numLanes="1" shape="507364.44,8032184.16,0.00 507378.02,8032189.78,0.00" speed="13.89" />
	<edge id="698817035_2994406003_6562206060" from="2994406003" to="6562206060" numLanes="1" shape="506469.05,8032430.54,0.00 506530.97,8032445.70,0.00" speed="8.33" />
	<edge id="819465232_2994405888_4690367165" from="2994405888" to="4690367165" numLanes="1" shape="506408.11,8032805.73,0.00 506476.81,8032821.91,0.00" speed="8.33" />
	<edge id="252125979_2582319192_2582319193" from="2582319192" to="2582319193" numLanes="2" shape="507736.52,8032874.58,0.00 507579.25,8032794.60,0.00" speed="13.89" />
	<edge id="295692152_2994405959_2994405945" from="2994405959" to="2994405945" numLanes="1" shape="505914.28,8032589.71,0.00 506009.20,8032611.59,0.00" speed="8.33" />
	<edge id="819443194_2995184943_8976864648" from="2995184943" to="8976864648" numLanes="1" shape="507926.10,8032591.93,0.00 507865.31,8032560.63,0.00" speed="8.33" />
	<edge id="842518425_2994406051_2994406047" from="2994406051" to="2994406047" numLanes="1" shape="505676.64,8032219.41,0.00 505781.75,8032245.34,0.00" speed="8.33" />
	<edge id="38132318_2995184984_2995184976" from="2995184984" to="2995184976" numLanes="2" shape="506907.06,8032323.86,0.00 506941.74,8032341.26,0.00 507009.27,8032375.22,0.00" speed="13.89" />
	<edge id="295758918_2995185028_3082006156" from="2995185028" to="3082006156" numLanes="2" shape="507183.56,8031988.51,0.00 507184.86,8031980.15,0.00 507213.05,8031904.89,0.00" speed="8.33" />
	<edge id="295692145_2994405990_2994405989" from="2994405990" to="2994405989" numLanes="1" shape="506046.24,8032467.59,0.00 506058.01,8032470.17,0.00" speed="8.33" />
	<edge id="295176701_2988813854_2995056903" from="2988813854" to="2995056903" numLanes="2" shape="507034.36,8032870.07,0.00 507132.77,8032921.06,0.00" speed="11.11" />
	<edge id="477110391_2994405860_2994405839" from="2994405860" to="2994405839" numLanes="1" shape="506487.25,8032919.47,0.00 506494.62,8032998.13,0.00" speed="8.33" />
	<edge id="295692141_2994405850_2994405867" from="2994405850" to="2994405867" numLanes="2" shape="506366.91,8032965.75,0.00 506385.92,8032891.80,0.00" speed="8.33" />
	<edge id="295752164_2995056914_2995056921" from="2995056914" to="2995056921" numLanes="1" shape="506785.16,8032663.87,0.00 506788.02,8032584.76,0.00" speed="8.33" />
	<edge id="376139537_448777386_2994721540" from="448777386" to="2994721540" numLanes="2" shape="507012.33,8032638.94,0.00 507118.65,8032693.11,0.00" speed="13.89" />
	<edge id="295752164_2995056924_2995056928" from="2995056924" to="2995056928" numLanes="1" shape="506794.10,8032477.50,0.00 506799.94,8032372.51,0.00" speed="8.33" />
	<edge id="524186463_4690367127_4690367172" from="4690367127" to="4690367172" numLanes="2" shape="506511.92,8032143.16,0.00 506454.89,8032112.77,0.00" speed="13.89" />
	<edge id="295692228_4690367165_7644051264" from="4690367165" to="7644051264" numLanes="2" shape="506476.81,8032821.91,0.00 506467.51,8032729.15,0.00" speed="13.89" />
	<edge id="819443194_2995184973_2582684508" from="2995184973" to="2582684508" numLanes="1" shape="507520.98,8032389.50,0.00 507452.90,8032352.81,0.00" speed="8.33" />
	<edge id="295692223_2994406064_2994406056" from="2994406064" to="2994406056" numLanes="1" shape="506012.98,8032180.30,0.00 506112.45,8032205.40,0.00" speed="8.33" />
	<edge id="295752127_6562206056_2995056924" from="6562206056" to="2995056924" numLanes="1" shape="506828.33,8032477.10,0.00 506794.10,8032477.50,0.00" speed="8.33" />
	<edge id="834378961_7653298712_6562063824" from="7653298712" to="6562063824" numLanes="2" shape="507659.85,8031922.67,0.00 507659.09,8031921.44,0.00 507646.15,8031903.95,0.00" speed="13.89" />
	<edge id="295692158_2994405883_2994405902" from="2994405883" to="2994405902" numLanes="1" shape="505849.93,8032832.97,0.00 505868.64,8032762.41,0.00" speed="8.33" />
	<edge id="295752164_2995184991_2995056931" from="2995184991" to="2995056931" numLanes="1" shape="506800.65,8032270.40,0.00 506799.16,8032286.05,0.00" speed="8.33" />
	<edge id="38132327_2995185009_7652685206" from="2995185009" to="7652685206" numLanes="2" shape="507261.52,8032132.40,0.00 507258.76,8032138.10,0.00" speed="13.89" />
	<edge id="295176699_2995056892_2994721537" from="2995056892" to="2994721537" numLanes="1" shape="507051.07,8033086.58,0.00 507003.90,8033062.17,0.00 506954.53,8033033.53,0.00" speed="8.33" />
	<edge id="524186453_4690367172_4690367173" from="4690367172" to="4690367173" numLanes="2" shape="506454.89,8032112.77,0.00 506458.79,8032099.57,0.00" speed="13.89" />
	<edge id="252125979_2728819567_2995056918" from="2728819567" to="2995056918" numLanes="2" shape="507372.17,8032690.33,0.00 507290.00,8032648.33,0.00 507272.03,8032638.80,0.00" speed="13.89" />
	<edge id="295692162_2994405852_2994405855" from="2994405852" to="2994405855" numLanes="1" shape="506265.21,8032949.34,0.00 506267.56,8032939.12,0.00" speed="8.33" />
	<edge id="830495461_6562206217_2994406052" from="6562206217" to="2994406052" numLanes="2" shape="506438.68,8032178.12,0.00 506446.88,8032182.82,0.00 506450.70,8032191.39,0.00 506451.16,8032202.30,0.00 506446.08,8032222.48,0.00" speed="8.33" />
	<edge id="295692152_2994405959_2994405967" from="2994405959" to="2994405967" numLanes="1" shape="505914.28,8032589.71,0.00 505810.12,8032563.45,0.00" speed="8.33" />
	<edge id="295692223_2994406064_2994406068" from="2994406064" to="2994406068" numLanes="1" shape="506012.98,8032180.30,0.00 505913.18,8032155.41,0.00" speed="8.33" />
	<edge id="295752137_2995056916_2995056915" from="2995056916" to="2995056915" numLanes="1" shape="506598.91,8032656.76,0.00 506696.12,8032660.71,0.00" speed="8.33" />
	<edge id="38132318_7737693582_7729751197" from="7737693582" to="7729751197" numLanes="2" shape="509176.69,8033455.67,0.00 509260.85,8033498.46,0.00" speed="13.89" />
	<edge id="295752147_2995184831_2995184820" from="2995184831" to="2995184820" numLanes="2" shape="507841.66,8032668.87,0.00 507792.34,8032765.48,0.00" speed="8.33" />
	<edge id="295692158_2994406032_2994406017" from="2994406032" to="2994406017" numLanes="1" shape="505981.93,8032306.63,0.00 505965.68,8032368.77,0.00" speed="8.33" />
	<edge id="295752164_2995056924_8347599130" from="2995056924" to="8347599130" numLanes="1" shape="506794.10,8032477.50,0.00 506788.79,8032569.29,0.00 506788.33,8032578.33,0.00" speed="8.33" />
	<edge id="295752181_448777449_2995056918" from="448777449" to="2995056918" numLanes="2" shape="507317.22,8032543.17,0.00 507272.03,8032638.80,0.00" speed="8.33" />
	<edge id="252381381_2728819556_2728819558" from="2728819556" to="2728819558" numLanes="2" shape="507365.05,8032953.05,0.00 507266.23,8032903.60,0.00" speed="11.11" />
	<edge id="830495461_2994406070_6562206217" from="2994406070" to="6562206217" numLanes="2" shape="506362.71,8032137.11,0.00 506438.68,8032178.12,0.00" speed="8.33" />
	<edge id="524186451_4690367173_4690367126" from="4690367173" to="4690367126" numLanes="2" shape="506458.79,8032099.57,0.00 506507.14,8032123.86,0.00" speed="13.89" />
	<edge id="295759031_2995185016_2995185017" from="2995185016" to="2995185017" numLanes="2" shape="506902.43,8032074.97,0.00 506893.68,8032072.49,0.00 506808.94,8032070.16,0.00" speed="8.33" />
	<edge id="524186459_2988828165_448777494" from="2988828165" to="448777494" numLanes="2" shape="506172.59,8031972.34,0.00 506114.52,8031942.26,0.00 506025.44,8031897.07,0.00 506012.14,8031891.20,0.00 506009.58,8031891.21,0.00 505989.46,8031889.55,0.00" speed="13.89" />
	<edge id="819455420_7652683582_2995185136" from="7652683582" to="2995185136" numLanes="2" shape="507053.81,8032028.42,0.00 507093.07,8031946.83,0.00" speed="8.33" />
	<edge id="295692192_2994406059_3086601543" from="2994406059" to="3086601543" numLanes="2" shape="506617.38,8032191.26,0.00 506612.51,8032277.97,0.00" speed="8.33" />
	<edge id="295692154_2994406060_2994406068" from="2994406060" to="2994406068" numLanes="1" shape="505900.82,8032195.51,0.00 505913.18,8032155.41,0.00" speed="8.33" />
	<edge id="295692158_2994406078_3086601544" from="2994406078" to="3086601544" numLanes="1" shape="506050.69,8032035.12,0.00 506028.07,8032118.58,0.00" speed="8.33" />
	<edge id="830495461_2994406074_2994406070" from="2994406074" to="2994406070" numLanes="2" shape="506266.09,8032091.25,0.00 506362.71,8032137.11,0.00" speed="8.33" />
	<edge id="295176699_2988813844_2988813845" from="2988813844" to="2988813845" numLanes="1" shape="507656.63,8033206.03,0.00 507582.91,8033219.17,0.00 507490.72,8033233.96,0.00 507417.16,8033244.34,0.00 507356.83,8033253.50,0.00" speed="8.33" />
	<edge id="295176701_3086594829_2988813853" from="3086594829" to="2988813853" numLanes="2" shape="507328.37,8033022.49,0.00 507438.92,8033079.71,0.00" speed="11.11" />
	<edge id="295759017_2995185001_2995185016" from="2995185001" to="2995185016" numLanes="1" shape="506897.47,8032194.03,0.00 506902.43,8032074.97,0.00" speed="8.33" />
	<edge id="295692162_2994406008_2994405988" from="2994406008" to="2994405988" numLanes="1" shape="506398.44,8032412.55,0.00 506381.46,8032476.30,0.00" speed="8.33" />
	<edge id="295752119_8976908311_3086601541" from="8976908311" to="3086601541" numLanes="2" shape="506788.43,8032280.83,0.00 506708.99,8032278.84,0.00" speed="8.33" />
	<edge id="819451311_7652673366_7652685205" from="7652673366" to="7652685205" numLanes="1" shape="507373.33,8032194.43,0.00 507362.18,8032188.95,0.00" speed="13.89" />
	<edge id="295692162_2994405852_2994405833" from="2994405852" to="2994405833" numLanes="1" shape="506265.21,8032949.34,0.00 506245.26,8033026.65,0.00" speed="8.33" />
	<edge id="38132318_2882415895_448777482" from="2882415895" to="448777482" numLanes="2" shape="508916.11,8033326.03,0.00 508983.63,8033359.28,0.00 508998.99,8033366.68,0.00 509011.56,8033372.74,0.00" speed="13.89" />
	<edge id="698817035_2994406003_2994406008" from="2994406003" to="2994406008" numLanes="1" shape="506469.05,8032430.54,0.00 506455.10,8032426.38,0.00 506398.44,8032412.55,0.00" speed="8.33" />
	<edge id="295723350_4252921818_3795696109" from="4252921818" to="3795696109" numLanes="2" shape="506891.73,8032617.36,0.00 506891.94,8032580.59,0.00" speed="8.33" />
	<edge id="295723558_2988813848_4690367151" from="2988813848" to="4690367151" numLanes="1" shape="506844.35,8032982.30,0.00 506814.37,8033045.73,0.00 506795.45,8033083.33,0.00 506766.68,8033140.49,0.00 506720.66,8033234.22,0.00" speed="13.89" />
	<edge id="295692160_2994405971_2994405972" from="2994405971" to="2994405972" numLanes="1" shape="506039.72,8032543.34,0.00 506027.59,8032540.46,0.00" speed="8.33" />
	<edge id="295692141_2994405867_2994405888" from="2994405867" to="2994405888" numLanes="2" shape="506385.92,8032891.80,0.00 506408.11,8032805.73,0.00" speed="8.33" />
	<edge id="295176818_2994406025_2994406011" from="2994406025" to="2994406011" numLanes="2" shape="506093.28,8032333.73,0.00 506078.25,8032397.62,0.00" speed="13.89" />
	<edge id="532818918_2994405945_2994405972" from="2994405945" to="2994405972" numLanes="2" shape="506009.20,8032611.59,0.00 506016.26,8032585.60,0.00 506027.59,8032540.46,0.00" speed="13.89" />
	<edge id="295758868_2995185006_2995185014" from="2995185006" to="2995185014" numLanes="2" shape="507531.62,8032176.92,0.00 507489.63,8032132.18,0.00 507479.64,8032122.82,0.00 507422.91,8032094.52,0.00" speed="8.33" />
	<edge id="532818919_2994405856_2994405864" from="2994405856" to="2994405864" numLanes="1" shape="505608.80,8032937.93,0.00 505589.49,8032932.69,0.00 505504.79,8032911.50,0.00" speed="8.33" />
	<edge id="475269738_4690367127_3086601542" from="4690367127" to="3086601542" numLanes="2" shape="506511.92,8032143.16,0.00 506517.27,8032184.03,0.00 506518.20,8032199.82,0.00 506520.96,8032217.11,0.00 506550.02,8032275.51,0.00" speed="13.89" />
	<edge id="350428867_3643067932_7652685205" from="3643067932" to="7652685205" numLanes="2" shape="507313.69,8032283.91,0.00 507362.18,8032188.95,0.00" speed="11.11" />
	<edge id="376284333_2995056917_2582319194" from="2995056917" to="2582319194" numLanes="2" shape="507521.38,8032645.12,0.00 507472.20,8032741.70,0.00" speed="13.89" />
	<edge id="897433781_6562206226_2994405938" from="6562206226" to="2994405938" numLanes="2" shape="506461.28,8032655.19,0.00 506445.44,8032647.70,0.00" speed="8.33" />
	<edge id="295692226_2994405848_2994405788" from="2994405848" to="2994405788" numLanes="1" shape="505724.44,8032967.91,0.00 505694.24,8033087.70,0.00 505680.32,8033143.30,0.00 505664.76,8033205.47,0.00 505650.36,8033263.01,0.00 505635.93,8033320.65,0.00 505618.15,8033378.59,0.00" speed="8.33" />
	<edge id="295692141_2994405888_2994405919" from="2994405888" to="2994405919" numLanes="2" shape="506408.11,8032805.73,0.00 506428.75,8032719.43,0.00" speed="8.33" />
	<edge id="295758963_7652648117_2995185137" from="7652648117" to="2995185137" numLanes="2" shape="506523.41,8032049.78,0.00 506527.32,8031938.68,0.00" speed="8.33" />
	<edge id="295692192_2995056930_2994405993" from="2995056930" to="2994405993" numLanes="2" shape="506609.79,8032364.26,0.00 506606.49,8032453.08,0.00 506606.18,8032461.20,0.00" speed="8.33" />
	<edge id="295692152_2994405919_2994405925" from="2994405919" to="2994405925" numLanes="1" shape="506428.75,8032719.43,0.00 506329.65,8032694.44,0.00" speed="8.33" />
	<edge id="532818918_6562206221_2988828165" from="6562206221" to="2988828165" numLanes="2" shape="506156.05,8032036.46,0.00 506172.59,8031972.34,0.00" speed="13.89" />
	<edge id="295692149_2994405881_2994405901" from="2994405881" to="2994405901" numLanes="1" shape="505523.71,8032838.90,0.00 505541.76,8032767.07,0.00" speed="8.33" />
	<edge id="295692160_2994405971_2994405966" from="2994405971" to="2994405966" numLanes="1" shape="506039.72,8032543.34,0.00 506141.46,8032568.09,0.00" speed="8.33" />
	<edge id="295692176_8976876459_3086601544" from="8976876459" to="3086601544" numLanes="1" shape="505934.43,8032092.20,0.00 506028.07,8032118.58,0.00" speed="8.33" />
	<edge id="475269742_4690367414_4690367420" from="4690367414" to="4690367420" numLanes="2" shape="506540.81,8032974.34,0.00 506548.15,8032962.41,0.00 506551.67,8032957.77,0.00 506562.90,8032952.63,0.00 506571.32,8032952.97,0.00 506581.25,8032957.10,0.00 506587.80,8032968.17,0.00" speed="8.33" />
	<edge id="267427062_2582319193_2988839498" from="2582319193" to="2988839498" numLanes="2" shape="507579.25,8032794.60,0.00 507626.17,8032698.54,0.00" speed="11.11" />
	<edge id="318362183_8976908311_2995056933" from="8976908311" to="2995056933" numLanes="2" shape="506788.43,8032280.83,0.00 506783.40,8032278.51,0.00 506709.74,8032239.22,0.00" speed="13.89" />
	<edge id="295692154_2994406060_2994406054" from="2994406060" to="2994406054" numLanes="1" shape="505900.82,8032195.51,0.00 505895.48,8032216.98,0.00" speed="8.33" />
	<edge id="267427062_2988813853_2584357131" from="2988813853" to="2584357131" numLanes="2" shape="507438.92,8033079.71,0.00 507452.22,8033051.55,0.00 507472.88,8033007.80,0.00" speed="11.11" />
	<edge id="295692150_2994405868_2994405861" from="2994405868" to="2994405861" numLanes="1" shape="505729.24,8032892.16,0.00 505830.22,8032916.03,0.00" speed="8.33" />
	<edge id="318362183_8353988254_2995056897" from="8353988254" to="2995056897" numLanes="2" shape="508424.51,8033096.02,0.00 508301.59,8033034.86,0.00" speed="13.89" />
	<edge id="295692228_4690367170_4690367172" from="4690367170" to="4690367172" numLanes="2" shape="506456.71,8032157.68,0.00 506454.89,8032112.77,0.00" speed="13.89" />
	<edge id="376284333_3086594829_2988813851" from="3086594829" to="2988813851" numLanes="2" shape="507328.37,8033022.49,0.00 507296.35,8033087.98,0.00" speed="13.89" />
	<edge id="425963803_2995184980_7652685199" from="2995184980" to="7652685199" numLanes="2" shape="507420.75,8032336.48,0.00 507465.64,8032239.82,0.00" speed="8.33" />
	<edge id="376284333_2995184936_2995056917" from="2995184936" to="2995056917" numLanes="2" shape="507526.86,8032632.94,0.00 507521.38,8032645.12,0.00" speed="13.89" />
	<edge id="295759053_8374553286_2995184999" from="8374553286" to="2995184999" numLanes="2" shape="507375.58,8032195.34,0.00 507378.02,8032189.78,0.00" speed="8.33" />
	<edge id="295692151_2994405902_2994405914" from="2994405902" to="2994405914" numLanes="1" shape="505868.64,8032762.41,0.00 505766.89,8032735.47,0.00" speed="8.33" />
	<edge id="295692191_8976876458_2994406063" from="8976876458" to="2994406063" numLanes="1" shape="505797.95,8032174.71,0.00 505776.63,8032174.74,0.00 505691.42,8032186.67,0.00 505684.36,8032192.00,0.00" speed="8.33" />
	<edge id="295752110_6562206059_4690367134" from="6562206059" to="4690367134" numLanes="1" shape="506546.53,8032448.47,0.00 506560.25,8032449.39,0.00" speed="8.33" />
	<edge id="295692191_8976876458_2994406060" from="8976876458" to="2994406060" numLanes="1" shape="505797.95,8032174.71,0.00 505802.99,8032174.70,0.00 505854.96,8032187.60,0.00 505900.82,8032195.51,0.00" speed="8.33" />
	<edge id="532818918_2994405894_2994405924" from="2994405894" to="2994405924" numLanes="2" shape="505963.78,8032787.97,0.00 505987.36,8032698.71,0.00" speed="13.89" />
	<edge id="295692223_2994406068_2994406064" from="2994406068" to="2994406064" numLanes="1" shape="505913.18,8032155.41,0.00 506012.98,8032180.30,0.00" speed="8.33" />
	<edge id="819443194_2582684508_2995184980" from="2582684508" to="2995184980" numLanes="1" shape="507452.90,8032352.81,0.00 507420.75,8032336.48,0.00" speed="8.33" />
	<edge id="38132318_2669215293_2963613564" from="2669215293" to="2963613564" numLanes="2" shape="509877.75,8033486.31,0.00 509970.40,8033468.13,0.00 510064.48,8033451.89,0.00" speed="13.89" />
	<edge id="295692162_2994405855_2994405852" from="2994405855" to="2994405852" numLanes="1" shape="506267.56,8032939.12,0.00 506265.21,8032949.34,0.00" speed="8.33" />
	<edge id="38132318_2995184951_2995184941" from="2995184951" to="2995184941" numLanes="2" shape="507323.09,8032531.30,0.00 507426.02,8032583.57,0.00" speed="13.89" />
	<edge id="295692150_2994405861_2994405854" from="2994405861" to="2994405854" numLanes="1" shape="505830.22,8032916.03,0.00 505918.76,8032939.62,0.00 505926.08,8032941.16,0.00" speed="8.33" />
	<edge id="532818918_2994406072_6562206221" from="2994406072" to="6562206221" numLanes="2" shape="506138.28,8032103.55,0.00 506156.05,8032036.46,0.00" speed="13.89" />
	<edge id="475269744_3086601534_2994405883" from="3086601534" to="2994405883" numLanes="2" shape="505749.45,8032807.79,0.00 505849.93,8032832.97,0.00" speed="13.89" />
	<edge id="295692156_2994405859_2994405840" from="2994405859" to="2994405840" numLanes="2" shape="506161.49,8032924.97,0.00 506142.43,8033000.38,0.00" speed="8.33" />
	<edge id="295692142_2994405993_2995056922" from="2994405993" to="2995056922" numLanes="1" shape="506606.18,8032461.20,0.00 506636.82,8032482.67,0.00 506700.41,8032527.27,0.00" speed="8.33" />
	<edge id="295759088_2995184987_2995184934" from="2995184987" to="2995184934" numLanes="2" shape="507719.90,8032281.17,0.00 507966.07,8032558.27,0.00 508015.51,8032614.79,0.00 508043.36,8032646.92,0.00 508060.28,8032660.83,0.00" speed="8.33" />
	<edge id="295759053_2995185024_2995185029" from="2995185024" to="2995185029" numLanes="2" shape="507483.55,8032017.66,0.00 507504.37,8032003.61,0.00 507544.89,8031975.78,0.00" speed="8.33" />
	<edge id="267427062_2988839498_448777469" from="2988839498" to="448777469" numLanes="2" shape="507626.17,8032698.54,0.00 507631.59,8032687.42,0.00" speed="11.11" />
	<edge id="295759053_2995185014_2995185024" from="2995185014" to="2995185024" numLanes="2" shape="507422.91,8032094.52,0.00 507428.18,8032088.64,0.00 507483.55,8032017.66,0.00" speed="8.33" />
	<edge id="38132343_3643067930_2995184968" from="3643067930" to="2995184968" numLanes="2" shape="507267.34,8032381.71,0.00 507293.91,8032394.83,0.00 507371.61,8032432.93,0.00" speed="8.33" />
	<edge id="297833439_2995056898_3017389649" from="2995056898" to="3017389649" numLanes="1" shape="507100.23,8032985.10,0.00 507105.51,8033011.80,0.00 507123.22,8033044.17,0.00 507147.05,8033090.89,0.00 507160.08,8033109.91,0.00" speed="8.33" />
	<edge id="295692145_2994406019_2994406013" from="2994406019" to="2994406013" numLanes="1" shape="505643.85,8032364.49,0.00 505748.96,8032391.13,0.00" speed="8.33" />
	<edge id="475269743_3085396702_2994405878" from="3085396702" to="2994405878" numLanes="2" shape="505942.87,8032869.84,0.00 505846.77,8032843.55,0.00" speed="13.89" />
	<edge id="38132343_2995184831_448777409" from="2995184831" to="448777409" numLanes="2" shape="507841.66,8032668.87,0.00 507945.62,8032721.19,0.00 508047.61,8032772.02,0.00 508149.28,8032824.30,0.00 508237.13,8032866.35,0.00 508254.14,8032874.50,0.00 508357.07,8032925.73,0.00 508479.76,8032988.45,0.00" speed="8.33" />
	<edge id="295692149_2994405864_2994405881" from="2994405864" to="2994405881" numLanes="1" shape="505504.79,8032911.50,0.00 505523.71,8032838.90,0.00" speed="8.33" />
	<edge id="425973609_2995185011_2995185016" from="2995185011" to="2995185016" numLanes="2" shape="507005.31,8032124.87,0.00 506902.43,8032074.97,0.00" speed="8.33" />
	<edge id="38132318_2995184991_2995184986" from="2995184991" to="2995184986" numLanes="2" shape="506800.65,8032270.40,0.00 506895.54,8032318.47,0.00" speed="13.89" />
	<edge id="295692146_2994406029_2994406047" from="2994406029" to="2994406047" numLanes="1" shape="505764.51,8032317.61,0.00 505781.75,8032245.34,0.00" speed="8.33" />
	<edge id="475269738_3086601542_4690367134" from="3086601542" to="4690367134" numLanes="2" shape="506550.02,8032275.51,0.00 506558.93,8032310.55,0.00 506567.57,8032342.11,0.00 506572.51,8032364.85,0.00 506573.25,8032379.38,0.00 506572.50,8032395.72,0.00 506570.12,8032417.75,0.00 506560.25,8032449.39,0.00" speed="13.89" />
	<edge id="379881172_2995056913_8341097228" from="2995056913" to="8341097228" numLanes="2" shape="506897.33,8032669.91,0.00 506897.18,8032662.98,0.00" speed="8.33" />
	<edge id="295176700_2988813851_3086594828" from="2988813851" to="3086594828" numLanes="2" shape="507296.35,8033087.98,0.00 507197.44,8033035.62,0.00" speed="8.33" />
	<edge id="295692149_2994405901_2994405903" from="2994405901" to="2994405903" numLanes="1" shape="505541.76,8032767.07,0.00 505543.86,8032757.03,0.00" speed="8.33" />
	<edge id="295752125_8341698684_2994721538" from="8341698684" to="2994721538" numLanes="2" shape="506917.00,8032830.82,0.00 506906.70,8032851.75,0.00" speed="13.89" />
	<edge id="38132318_448777411_448777352" from="448777411" to="448777352" numLanes="2" shape="508437.75,8033089.10,0.00 508576.83,8033156.95,0.00" speed="13.89" />
	<edge id="38132318_2995185012_2995185005" from="2995185012" to="2995185005" numLanes="2" shape="506518.14,8032130.19,0.00 506617.53,8032178.60,0.00" speed="13.89" />
	<edge id="295692149_2994405979_2994405951" from="2994405979" to="2994405951" numLanes="1" shape="505606.11,8032512.00,0.00 505585.01,8032596.53,0.00" speed="8.33" />
	<edge id="295692150_2994405868_2994405874" from="2994405868" to="2994405874" numLanes="1" shape="505729.24,8032892.16,0.00 505627.03,8032865.26,0.00" speed="8.33" />
	<edge id="295176818_2994406055_2994406041" from="2994406055" to="2994406041" numLanes="2" shape="506124.77,8032209.26,0.00 506108.95,8032270.08,0.00" speed="13.89" />
	<edge id="819443194_2988839500_2995184966" from="2988839500" to="2995184966" numLanes="1" shape="507728.28,8032492.63,0.00 507626.50,8032438.67,0.00" speed="8.33" />
	<edge id="295752137_4690367152_2995056916" from="4690367152" to="2995056916" numLanes="1" shape="506536.41,8032653.16,0.00 506598.91,8032656.76,0.00" speed="8.33" />
	<edge id="295759017_2995185001_2995184986" from="2995185001" to="2995184986" numLanes="1" shape="506897.47,8032194.03,0.00 506892.82,8032289.18,0.00 506894.02,8032302.15,0.00 506895.54,8032318.47,0.00" speed="8.33" />
	<edge id="425973607_2995185031_2995185017" from="2995185031" to="2995185017" numLanes="2" shape="506812.75,8031960.44,0.00 506808.94,8032070.16,0.00" speed="8.33" />
	<edge id="295176699_2988813847_2988813846" from="2988813847" to="2988813846" numLanes="1" shape="507145.64,8033139.46,0.00 507245.97,8033192.36,0.00" speed="8.33" />
	<edge id="295752127_2995056925_2995056924" from="2995056925" to="2995056924" numLanes="1" shape="506702.08,8032475.40,0.00 506794.10,8032477.50,0.00" speed="8.33" />
	<edge id="475269743_2994405859_2994405866" from="2994405859" to="2994405866" numLanes="2" shape="506161.49,8032924.97,0.00 506059.21,8032898.90,0.00" speed="13.89" />
	<edge id="295752127_2995056924_2995056925" from="2995056924" to="2995056925" numLanes="1" shape="506794.10,8032477.50,0.00 506702.08,8032475.40,0.00" speed="8.33" />
	<edge id="295752137_2995056913_2995056914" from="2995056913" to="2995056914" numLanes="1" shape="506897.33,8032669.91,0.00 506785.16,8032663.87,0.00" speed="8.33" />
	<edge id="819465232_4690367165_2994405888" from="4690367165" to="2994405888" numLanes="1" shape="506476.81,8032821.91,0.00 506408.11,8032805.73,0.00" speed="8.33" />
	<edge id="698817034_6562206059_6562206060" from="6562206059" to="6562206060" numLanes="1" shape="506546.53,8032448.47,0.00 506530.97,8032445.70,0.00" speed="8.33" />
	<edge id="295692141_2994405938_2994405949" from="2994405938" to="2994405949" numLanes="2" shape="506445.44,8032647.70,0.00 506455.76,8032602.33,0.00" speed="8.33" />
	<edge id="318362183_448777449_2994721542" from="448777449" to="2994721542" numLanes="2" shape="507317.22,8032543.17,0.00 507215.09,8032492.02,0.00" speed="13.89" />
	<edge id="532818918_2988828165_2988828174" from="2988828165" to="2988828174" numLanes="2" shape="506172.59,8031972.34,0.00 506177.67,8031959.27,0.00" speed="13.89" />
	<edge id="295692154_8976876459_2994406068" from="8976876459" to="2994406068" numLanes="1" shape="505934.43,8032092.20,0.00 505913.18,8032155.41,0.00" speed="8.33" />
	<edge id="295752150_2995056910_4690367153" from="2995056910" to="4690367153" numLanes="2" shape="506596.46,8032725.85,0.00 506544.45,8032725.38,0.00" speed="8.33" />
	<edge id="295692145_2994406019_2994406031" from="2994406019" to="2994406031" numLanes="1" shape="505643.85,8032364.49,0.00 505545.19,8032339.48,0.00 505432.33,8032310.87,0.00" speed="8.33" />